@<TRIPOS>MOLECULE
IMPHY014637
 33 34 0 0 0
SMALL
GASTEIGER

@<TRIPOS>ATOM
      1 O           3.2320    3.6830    0.0000 O.3     1  UNL1       -0.3611
      2 O           4.2320    3.6830    0.0000 O.3     1  UNL1       -0.3611
      3 O           2.0000    0.8170    0.0000 O.2     1  UNL1       -0.2917
      4 O           2.8660   -0.6830    0.0000 O.2     1  UNL1       -0.5061
      5 C           3.7320    2.8170    0.0000 C.3     1  UNL1        0.1919
      6 C           2.8660    2.3170    0.0000 C.3     1  UNL1        0.0683
      7 C           2.8660    1.3170    0.0000 C.2     1  UNL1        0.1721
      8 C           3.7320    0.8170    0.0000 C.2     1  UNL1        0.0588
      9 C           4.5981    2.3170    0.0000 C.2     1  UNL1       -0.0248
     10 C           4.5981    1.3170    0.0000 C.2     1  UNL1       -0.0467
     11 C           3.7320   -0.1830    0.0000 C.2     1  UNL1        0.1273
     12 C           4.5981   -0.6830    0.0000 C.2     1  UNL1       -0.0189
     13 C           4.5981   -1.6830    0.0000 C.2     1  UNL1       -0.0511
     14 C           5.4641   -2.1830    0.0000 C.ar    1  UNL1       -0.0249
     15 C           5.4641   -3.1830    0.0000 C.ar    1  UNL1       -0.0546
     16 C           6.3301   -1.6830    0.0000 C.ar    1  UNL1       -0.0546
     17 C           6.3301   -3.6830    0.0000 C.ar    1  UNL1       -0.0612
     18 C           7.1962   -2.1830    0.0000 C.ar    1  UNL1       -0.0612
     19 C           7.1962   -3.1830    0.0000 C.ar    1  UNL1       -0.0617
     20 H           2.6540    2.8996    0.0000 H       1  UNL1        0.0401
     21 H           2.2554    2.2093    0.0000 H       1  UNL1        0.0401
     22 H           5.1350    2.6270    0.0000 H       1  UNL1        0.0625
     23 H           5.1350    1.0070    0.0000 H       1  UNL1        0.0624
     24 H           2.6120    3.6830    0.0000 H       1  UNL1        0.2131
     25 H           4.8520    3.6830    0.0000 H       1  UNL1        0.2131
     26 H           5.1350   -0.3730    0.0000 H       1  UNL1        0.0654
     27 H           4.0611   -1.9930    0.0000 H       1  UNL1        0.0625
     28 H           4.9272   -3.4930    0.0000 H       1  UNL1        0.0623
     29 H           6.3301   -1.0630    0.0000 H       1  UNL1        0.0623
     30 H           2.8660   -1.3030    0.0000 H       1  UNL1        0.2922
     31 H           6.3301   -4.3030    0.0000 H       1  UNL1        0.0618
     32 H           7.7331   -1.8730    0.0000 H       1  UNL1        0.0618
     33 H           7.7331   -3.4930    0.0000 H       1  UNL1        0.0618
@<TRIPOS>BOND
     1     1     5    1
     2     1    24    1
     3     2     5    1
     4     2    25    1
     5     3     7    2
     6     4    11    1
     7     4    30    1
     8     5     6    1
     9     5     9    1
    10     6     7    1
    11     6    20    1
    12     6    21    1
    13     7     8    1
    14     8    10    1
    15     8    11    2
    16     9    10    2
    17     9    22    1
    18    10    23    1
    19    11    12    1
    20    12    13    2
    21    12    26    1
    22    13    14    1
    23    13    27    1
    24    14    15   ar
    25    14    16   ar
    26    15    17   ar
    27    15    28    1
    28    16    18   ar
    29    16    29    1
    30    17    19   ar
    31    17    31    1
    32    18    19   ar
    33    18    32    1
    34    19    33    1
