@<TRIPOS>MOLECULE
IMPHY003147
 49 53 0 0 0
SMALL
GASTEIGER

@<TRIPOS>ATOM
      1 CL          4.5294    3.6980    0.0000 Cl      1  UNL1       -0.0835
      2 O           6.6555   -2.6625    0.0000 O.3     1  UNL1       -0.4646
      3 O           7.0156   -0.9683    0.0000 O.2     1  UNL1       -0.2453
      4 N           2.6254   -0.9205    0.0000 N.3     1  UNL1       -0.2937
      5 N           5.7049    0.0801    0.0000 N.pl3   1  UNL1       -0.3164
      6 C           4.1652   -0.4202    0.0000 C.3     1  UNL1        0.0534
      7 C           3.5397   -1.1149    0.0000 C.3     1  UNL1        0.0349
      8 C           3.8286   -2.0038    0.0000 C.3     1  UNL1        0.0095
      9 C           3.7801    0.6154    0.0000 C.3     1  UNL1       -0.0237
     10 C           5.0795   -0.6146    0.0000 C.2     1  UNL1        0.0304
     11 C           2.3366   -0.0316    0.0000 C.3     1  UNL1        0.0007
     12 C           4.7429   -2.1982    0.0000 C.3     1  UNL1       -0.0089
     13 C           4.5018    1.1634    0.0000 C.ar    1  UNL1       -0.0116
     14 C           5.3683   -1.5035    0.0000 C.2     1  UNL1        0.0553
     15 C           4.1376   -2.9549    0.0000 C.3     1  UNL1       -0.0450
     16 C           3.2031   -2.6984    0.0000 C.2     1  UNL1       -0.0787
     17 C           2.0000   -1.6151    0.0000 C.3     1  UNL1        0.0175
     18 C           5.4161    0.9690    0.0000 C.ar    1  UNL1        0.0354
     19 C           2.2888   -2.5041    0.0000 C.2     1  UNL1       -0.0734
     20 C           4.2129    2.0523    0.0000 C.ar    1  UNL1       -0.0375
     21 C           3.4685   -3.6980    0.0000 C.3     1  UNL1       -0.0644
     22 C           6.3465   -1.7114    0.0000 C.2     1  UNL1        0.3364
     23 C           6.0415    1.6637    0.0000 C.ar    1  UNL1       -0.0389
     24 C           4.8384    2.7470    0.0000 C.ar    1  UNL1        0.0414
     25 C           5.7527    2.5526    0.0000 C.ar    1  UNL1       -0.0416
     26 C           7.6336   -2.8704    0.0000 C.3     1  UNL1        0.0820
     27 H           3.2771   -0.3065    0.0000 H       1  UNL1        0.0484
     28 H           4.3564    0.8441    0.0000 H       1  UNL1        0.0290
     29 H           3.5389    1.1866    0.0000 H       1  UNL1        0.0290
     30 H           2.1034    0.5429    0.0000 H       1  UNL1        0.0427
     31 H           1.7542   -0.2441    0.0000 H       1  UNL1        0.0427
     32 H           4.5106   -2.7730    0.0000 H       1  UNL1        0.0325
     33 H           5.2687   -2.5267    0.0000 H       1  UNL1        0.0325
     34 H           4.5193   -3.4434    0.0000 H       1  UNL1        0.0272
     35 H           4.6850   -2.6638    0.0000 H       1  UNL1        0.0272
     36 H           3.3947   -3.2881    0.0000 H       1  UNL1        0.0576
     37 H           1.6183   -1.1266    0.0000 H       1  UNL1        0.0470
     38 H           1.4526   -1.9062    0.0000 H       1  UNL1        0.0470
     39 H           6.3114   -0.0488    0.0000 H       1  UNL1        0.1519
     40 H           1.8740   -2.9649    0.0000 H       1  UNL1        0.0582
     41 H           3.6065    2.1812    0.0000 H       1  UNL1        0.0636
     42 H           3.0077   -3.2832    0.0000 H       1  UNL1        0.0230
     43 H           3.0536   -4.1588    0.0000 H       1  UNL1        0.0230
     44 H           3.9292   -4.1129    0.0000 H       1  UNL1        0.0230
     45 H           6.6480    1.5348    0.0000 H       1  UNL1        0.0637
     46 H           6.1676    3.0134    0.0000 H       1  UNL1        0.0633
     47 H           7.5047   -3.4769    0.0000 H       1  UNL1        0.0661
     48 H           8.2401   -2.9993    0.0000 H       1  UNL1        0.0661
     49 H           7.7625   -2.2640    0.0000 H       1  UNL1        0.0661
@<TRIPOS>BOND
     1     1    24    1
     2     2    22    1
     3     2    26    1
     4     3    22    2
     5     4     7    1
     6     4    11    1
     7     4    17    1
     8     5    10    1
     9     5    18    1
    10     5    39    1
    11     6     7    1
    12     6     9    1
    13     6    10    1
    14     6    13    1
    15     7     8    1
    16     7    27    1
    17     8    12    1
    18     8    15    1
    19     8    16    1
    20     9    11    1
    21     9    28    1
    22     9    29    1
    23    10    14    2
    24    11    30    1
    25    11    31    1
    26    12    14    1
    27    12    32    1
    28    12    33    1
    29    13    18   ar
    30    13    20   ar
    31    14    22    1
    32    15    21    1
    33    15    34    1
    34    15    35    1
    35    16    19    2
    36    16    36    1
    37    17    19    1
    38    17    37    1
    39    17    38    1
    40    18    23   ar
    41    19    40    1
    42    20    24   ar
    43    20    41    1
    44    21    42    1
    45    21    43    1
    46    21    44    1
    47    23    25   ar
    48    23    45    1
    49    24    25   ar
    50    25    46    1
    51    26    47    1
    52    26    48    1
    53    26    49    1
