@<TRIPOS>MOLECULE
IMPHY015360
 29 29 0 0 0
SMALL
GASTEIGER

@<TRIPOS>ATOM
      1 O           2.5369    0.5000    0.0000 O.3     1  UNL1       -0.5065
      2 O           6.0010   -1.5000    0.0000 O.3     1  UNL1       -0.4951
      3 C           4.2690    1.5000    0.0000 C.3     1  UNL1       -0.0091
      4 C           4.2690    0.5000    0.0000 C.ar    1  UNL1        0.0029
      5 C           4.2690    2.5000    0.0000 C.3     1  UNL1       -0.0559
      6 C           5.2690    1.5000    0.0000 C.3     1  UNL1       -0.0559
      7 C           3.2690    1.5000    0.0000 C.3     1  UNL1       -0.0559
      8 C           3.4030    0.0000    0.0000 C.ar    1  UNL1        0.1207
      9 C           5.1350    0.0000    0.0000 C.ar    1  UNL1       -0.0128
     10 C           5.1350   -1.0000    0.0000 C.ar    1  UNL1        0.1206
     11 C           3.4030   -1.0000    0.0000 C.ar    1  UNL1       -0.0164
     12 C           4.2690   -1.5000    0.0000 C.ar    1  UNL1       -0.0165
     13 C           6.0010   -2.5000    0.0000 C.3     1  UNL1        0.0788
     14 H           4.8890    2.5000    0.0000 H       1  UNL1        0.0238
     15 H           4.2690    3.1200    0.0000 H       1  UNL1        0.0238
     16 H           3.6490    2.5000    0.0000 H       1  UNL1        0.0238
     17 H           5.2690    0.8800    0.0000 H       1  UNL1        0.0238
     18 H           5.8890    1.5000    0.0000 H       1  UNL1        0.0238
     19 H           5.2690    2.1200    0.0000 H       1  UNL1        0.0238
     20 H           3.2690    2.1200    0.0000 H       1  UNL1        0.0238
     21 H           2.6490    1.5000    0.0000 H       1  UNL1        0.0238
     22 H           3.2690    0.8800    0.0000 H       1  UNL1        0.0238
     23 H           5.6720    0.3100    0.0000 H       1  UNL1        0.0658
     24 H           2.8660   -1.3100    0.0000 H       1  UNL1        0.0655
     25 H           4.2690   -2.1200    0.0000 H       1  UNL1        0.0655
     26 H           2.0000    0.1900    0.0000 H       1  UNL1        0.2921
     27 H           5.3810   -2.5000    0.0000 H       1  UNL1        0.0660
     28 H           6.0010   -3.1200    0.0000 H       1  UNL1        0.0660
     29 H           6.6210   -2.5000    0.0000 H       1  UNL1        0.0660
@<TRIPOS>BOND
     1     1     8    1
     2     1    26    1
     3     2    10    1
     4     2    13    1
     5     3     4    1
     6     3     5    1
     7     3     6    1
     8     3     7    1
     9     4     8   ar
    10     4     9   ar
    11     5    14    1
    12     5    15    1
    13     5    16    1
    14     6    17    1
    15     6    18    1
    16     6    19    1
    17     7    20    1
    18     7    21    1
    19     7    22    1
    20     8    11   ar
    21     9    10   ar
    22     9    23    1
    23    10    12   ar
    24    11    12   ar
    25    11    24    1
    26    12    25    1
    27    13    27    1
    28    13    28    1
    29    13    29    1
