@<TRIPOS>MOLECULE
IMPHY011003
 11 10 0 0 0
SMALL
GASTEIGER

@<TRIPOS>ATOM
      1 O           4.5981   -0.0600    0.0000 O.2     1  UNL1       -0.2961
      2 C           2.8660   -0.0600    0.0000 C.2     1  UNL1       -0.0183
      3 C           2.0000    0.4400    0.0000 C.3     1  UNL1       -0.0372
      4 C           3.7320    0.4400    0.0000 C.2     1  UNL1        0.1454
      5 C           2.8660   -1.0600    0.0000 C.2     1  UNL1       -0.0927
      6 H           2.3100    0.9769    0.0000 H       1  UNL1        0.0278
      7 H           1.4631    0.7500    0.0000 H       1  UNL1        0.0278
      8 H           1.6900   -0.0969    0.0000 H       1  UNL1        0.0278
      9 H           3.7320    1.0600    0.0000 H       1  UNL1        0.1078
     10 H           2.3291   -1.3700    0.0000 H       1  UNL1        0.0538
     11 H           3.4030   -1.3700    0.0000 H       1  UNL1        0.0538
@<TRIPOS>BOND
     1     1     4    2
     2     2     3    1
     3     2     4    1
     4     2     5    2
     5     3     6    1
     6     3     7    1
     7     3     8    1
     8     4     9    1
     9     5    10    1
    10     5    11    1
