@<TRIPOS>MOLECULE
IMPHY012096
 15 15 0 0 0
SMALL
GASTEIGER

@<TRIPOS>ATOM
      1 O           2.8660    1.3100    0.0000 O.3     1  UNL1       -0.3773
      2 N           2.8660   -0.6900    0.0000 N.3     1  UNL1       -0.3116
      3 C           3.7320   -0.1900    0.0000 C.3     1  UNL1        0.0194
      4 C           2.0000   -0.1900    0.0000 C.3     1  UNL1        0.0194
      5 C           3.7320    0.8100    0.0000 C.3     1  UNL1        0.0602
      6 C           2.0000    0.8100    0.0000 C.3     1  UNL1        0.0602
      7 H           3.9441   -0.7726    0.0000 H       1  UNL1        0.0446
      8 H           4.3426   -0.0823    0.0000 H       1  UNL1        0.0446
      9 H           1.3894   -0.0823    0.0000 H       1  UNL1        0.0446
     10 H           1.7880   -0.7726    0.0000 H       1  UNL1        0.0446
     11 H           4.3426    0.7023    0.0000 H       1  UNL1        0.0572
     12 H           3.9441    1.3926    0.0000 H       1  UNL1        0.0572
     13 H           1.7880    1.3926    0.0000 H       1  UNL1        0.0572
     14 H           1.3894    0.7023    0.0000 H       1  UNL1        0.0572
     15 H           2.8660   -1.3100    0.0000 H       1  UNL1        0.1221
@<TRIPOS>BOND
     1     1     5    1
     2     1     6    1
     3     2     3    1
     4     2     4    1
     5     2    15    1
     6     3     5    1
     7     3     7    1
     8     3     8    1
     9     4     6    1
    10     4     9    1
    11     4    10    1
    12     5    11    1
    13     5    12    1
    14     6    13    1
    15     6    14    1
