@<TRIPOS>MOLECULE
IMPHY012977
 82 87 0 0 0
SMALL
GASTEIGER

@<TRIPOS>ATOM
      1 O           5.9860    1.3036    0.0000 O.3     1  UNL1       -0.3374
      2 O           6.8680   -1.2379    0.0000 O.3     1  UNL1       -0.4512
      3 O           8.6382   -0.2410    0.0000 O.3     1  UNL1       -0.4501
      4 O           8.6540    1.8072    0.0000 O.3     1  UNL1       -0.4488
      5 O           6.8802    2.8314    0.0000 O.3     1  UNL1       -0.3641
      6 O           4.8772   -1.2038    0.0000 O.3     1  UNL1       -0.4584
      7 O           5.8477   -2.9182    0.0000 O.2     1  UNL1       -0.2449
      8 O           9.5216    1.2488    0.0000 O.2     1  UNL1       -0.2449
      9 O           7.7938    3.3105    0.0000 O.2     1  UNL1       -0.2449
     10 O           5.8772   -1.2038    0.0000 O.2     1  UNL1       -0.2449
     11 O           6.3741   -5.5721    0.0000 O.3     1  UNL1       -0.5028
     12 O           5.3803   -5.5721    0.0000 O.3     1  UNL1       -0.5028
     13 O           9.4464   -3.8140    0.0000 O.3     1  UNL1       -0.5032
     14 O           8.4223   -5.5879    0.0000 O.3     1  UNL1       -0.5009
     15 O           3.3321   -5.5879    0.0000 O.3     1  UNL1       -0.5009
     16 O           2.3079   -3.8140    0.0000 O.3     1  UNL1       -0.5032
     17 O          12.9739    0.2089    0.0000 O.3     1  UNL1       -0.5032
     18 O          11.2072   -2.7709    0.0000 O.3     1  UNL1       -0.5032
     19 O          10.4015    5.8005    0.0000 O.3     1  UNL1       -0.5032
     20 O          12.1220    2.7938    0.0000 O.3     1  UNL1       -0.5032
     21 O          12.9507   -1.7910    0.0000 O.3     1  UNL1       -0.5009
     22 O          12.1297    4.7938    0.0000 O.3     1  UNL1       -0.5009
     23 C           6.8680   -0.2379    0.0000 C.3     1  UNL1        0.1729
     24 C           7.7780    0.2690    0.0000 C.3     1  UNL1        0.1840
     25 C           6.0020    0.2621    0.0000 C.3     1  UNL1        0.1361
     26 C           7.7861    1.3106    0.0000 C.3     1  UNL1        0.1938
     27 C           6.8840    1.8314    0.0000 C.3     1  UNL1        0.1981
     28 C           5.1360   -0.2379    0.0000 C.3     1  UNL1        0.1226
     29 C           6.3772   -2.0699    0.0000 C.2     1  UNL1        0.3405
     30 C           9.5100    0.2489    0.0000 C.2     1  UNL1        0.3399
     31 C           8.6579    2.8072    0.0000 C.2     1  UNL1        0.3400
     32 C           6.8772   -2.9359    0.0000 C.ar    1  UNL1        0.0740
     33 C           5.3772   -2.0699    0.0000 C.2     1  UNL1        0.3401
     34 C           6.3772   -3.8019    0.0000 C.ar    1  UNL1        0.0458
     35 C           4.8772   -2.9359    0.0000 C.ar    1  UNL1        0.0740
     36 C           5.3772   -3.8019    0.0000 C.ar    1  UNL1        0.0458
     37 C          10.3702   -0.2611    0.0000 C.ar    1  UNL1        0.0661
     38 C           9.5258    3.3039    0.0000 C.ar    1  UNL1        0.0661
     39 C           7.9187   -2.9198    0.0000 C.ar    1  UNL1       -0.0017
     40 C           6.8840   -4.7119    0.0000 C.ar    1  UNL1        0.1708
     41 C           4.8703   -4.7119    0.0000 C.ar    1  UNL1        0.1708
     42 C           3.8357   -2.9198    0.0000 C.ar    1  UNL1       -0.0017
     43 C           8.4464   -3.8178    0.0000 C.ar    1  UNL1        0.1628
     44 C           7.9256   -4.7199    0.0000 C.ar    1  UNL1        0.2012
     45 C          10.3586   -1.2610    0.0000 C.ar    1  UNL1       -0.0023
     46 C          11.2419    0.2289    0.0000 C.ar    1  UNL1       -0.0023
     47 C          10.3899    2.8005    0.0000 C.ar    1  UNL1       -0.0023
     48 C           9.5297    4.3038    0.0000 C.ar    1  UNL1       -0.0023
     49 C           3.8287   -4.7199    0.0000 C.ar    1  UNL1        0.2012
     50 C           3.3079   -3.8178    0.0000 C.ar    1  UNL1        0.1628
     51 C          12.1021   -0.2811    0.0000 C.ar    1  UNL1        0.1628
     52 C          11.2188   -1.7710    0.0000 C.ar    1  UNL1        0.1628
     53 C          10.3976    4.8005    0.0000 C.ar    1  UNL1        0.1628
     54 C          11.2579    3.2972    0.0000 C.ar    1  UNL1        0.1628
     55 C          12.0905   -1.2810    0.0000 C.ar    1  UNL1        0.2006
     56 C          11.2617    4.2972    0.0000 C.ar    1  UNL1        0.2006
     57 H           7.6009   -0.6686    0.0000 H       1  UNL1        0.0801
     58 H           7.7697   -0.3510    0.0000 H       1  UNL1        0.0812
     59 H           5.2626    0.6814    0.0000 H       1  UNL1        0.0670
     60 H           7.7873    1.9306    0.0000 H       1  UNL1        0.0825
     61 H           7.4203    2.1424    0.0000 H       1  UNL1        0.0948
     62 H           4.9755    0.3610    0.0000 H       1  UNL1        0.0725
     63 H           4.5160   -0.2379    0.0000 H       1  UNL1        0.0725
     64 H           6.3420    3.1393    0.0000 H       1  UNL1        0.2126
     65 H           8.2225   -2.3793    0.0000 H       1  UNL1        0.0664
     66 H           3.5319   -2.3793    0.0000 H       1  UNL1        0.0664
     67 H           9.8181   -1.5648    0.0000 H       1  UNL1        0.0663
     68 H          11.2491    0.8489    0.0000 H       1  UNL1        0.0663
     69 H          10.3875    2.1805    0.0000 H       1  UNL1        0.0663
     70 H           8.9940    4.6159    0.0000 H       1  UNL1        0.0663
     71 H           6.6778   -6.1126    0.0000 H       1  UNL1        0.2923
     72 H           5.0766   -6.1126    0.0000 H       1  UNL1        0.2923
     73 H           9.7544   -3.2759    0.0000 H       1  UNL1        0.2923
     74 H           9.0423   -5.5903    0.0000 H       1  UNL1        0.2924
     75 H           2.7121   -5.5903    0.0000 H       1  UNL1        0.2924
     76 H           2.0000   -3.2759    0.0000 H       1  UNL1        0.2923
     77 H          12.9810    0.8288    0.0000 H       1  UNL1        0.2923
     78 H          11.7405   -3.0871    0.0000 H       1  UNL1        0.2923
     79 H           9.8658    6.1126    0.0000 H       1  UNL1        0.2923
     80 H          12.6601    3.1018    0.0000 H       1  UNL1        0.2923
     81 H          13.4912   -1.4872    0.0000 H       1  UNL1        0.2924
     82 H          12.1321    5.4138    0.0000 H       1  UNL1        0.2924
@<TRIPOS>BOND
     1     1    25    1
     2     1    27    1
     3     2    23    1
     4     2    29    1
     5    24     3    1
     6     3    30    1
     7    26     4    1
     8     4    31    1
     9    27     5    1
    10     5    64    1
    11     6    28    1
    12     6    33    1
    13     7    29    2
    14     8    30    2
    15     9    31    2
    16    10    33    2
    17    11    40    1
    18    11    71    1
    19    12    41    1
    20    12    72    1
    21    13    43    1
    22    13    73    1
    23    14    44    1
    24    14    74    1
    25    15    49    1
    26    15    75    1
    27    16    50    1
    28    16    76    1
    29    17    51    1
    30    17    77    1
    31    18    52    1
    32    18    78    1
    33    19    53    1
    34    19    79    1
    35    20    54    1
    36    20    80    1
    37    21    55    1
    38    21    81    1
    39    22    56    1
    40    22    82    1
    41    23    24    1
    42    23    25    1
    43    23    57    1
    44    24    26    1
    45    24    58    1
    46    25    28    1
    47    25    59    1
    48    26    27    1
    49    26    60    1
    50    27    61    1
    51    28    62    1
    52    28    63    1
    53    29    32    1
    54    30    37    1
    55    31    38    1
    56    32    34   ar
    57    32    39   ar
    58    33    35    1
    59    34    36    1
    60    34    40   ar
    61    35    36   ar
    62    35    42   ar
    63    36    41   ar
    64    37    45   ar
    65    37    46   ar
    66    38    47   ar
    67    38    48   ar
    68    39    43   ar
    69    39    65    1
    70    40    44   ar
    71    41    49   ar
    72    42    50   ar
    73    42    66    1
    74    43    44   ar
    75    45    52   ar
    76    45    67    1
    77    46    51   ar
    78    46    68    1
    79    47    54   ar
    80    47    69    1
    81    48    53   ar
    82    48    70    1
    83    49    50   ar
    84    51    55   ar
    85    52    55   ar
    86    53    56   ar
    87    54    56   ar
