@<TRIPOS>MOLECULE
IMPHY004086
 50 53 0 0 0
SMALL
GASTEIGER

@<TRIPOS>ATOM
      1 O           3.2547   -0.0018    0.0000 O.3     1  UNL1       -0.3659
      2 O           6.3234   -0.0018    0.0000 O.3     1  UNL1       -0.3659
      3 O           4.7936    1.4982    0.0000 O.3     1  UNL1       -0.3803
      4 O           4.7936   -1.5018    0.0000 O.3     1  UNL1       -0.3803
      5 O           4.5628    4.1956    0.0000 O.3     1  UNL1       -0.4914
      6 O           5.0254   -4.1962    0.0000 O.3     1  UNL1       -0.4914
      7 O           2.6064    4.6114    0.0000 O.3     1  UNL1       -0.5033
      8 O           6.9824   -4.6086    0.0000 O.3     1  UNL1       -0.5033
      9 C           4.7936    0.4982    0.0000 C.3     1  UNL1        0.1525
     10 C           4.7936   -0.5018    0.0000 C.3     1  UNL1        0.1525
     11 C           3.8425    0.8072    0.0000 C.3     1  UNL1        0.1175
     12 C           5.7398   -0.8065    0.0000 C.3     1  UNL1        0.1175
     13 C           5.7398    0.8029    0.0000 C.3     1  UNL1        0.0830
     14 C           3.8425   -0.8108    0.0000 C.3     1  UNL1        0.0830
     15 C           3.5335    1.7583    0.0000 C.ar    1  UNL1       -0.0123
     16 C           6.0505   -1.7570    0.0000 C.ar    1  UNL1       -0.0123
     17 C           4.2026    2.5014    0.0000 C.ar    1  UNL1       -0.0106
     18 C           5.3826   -2.5013    0.0000 C.ar    1  UNL1       -0.0106
     19 C           2.5553    1.9662    0.0000 C.ar    1  UNL1       -0.0523
     20 C           7.0290   -1.9633    0.0000 C.ar    1  UNL1       -0.0523
     21 C           5.6933   -3.4519    0.0000 C.ar    1  UNL1        0.1616
     22 C           3.8936    3.4525    0.0000 C.ar    1  UNL1        0.1616
     23 C           2.2463    2.9172    0.0000 C.ar    1  UNL1       -0.0162
     24 C           7.3396   -2.9138    0.0000 C.ar    1  UNL1       -0.0162
     25 C           2.9155    3.6604    0.0000 C.ar    1  UNL1        0.1585
     26 C           6.6718   -3.6581    0.0000 C.ar    1  UNL1        0.1585
     27 C           5.3361   -5.1467    0.0000 C.3     1  UNL1        0.0790
     28 C           4.2537    5.1467    0.0000 C.3     1  UNL1        0.0790
     29 H           6.3523   -0.9027    0.0000 H       1  UNL1        0.0677
     30 H           3.2302    0.9042    0.0000 H       1  UNL1        0.0677
     31 H           3.3056   -1.1208    0.0000 H       1  UNL1        0.0591
     32 H           4.0947   -1.3772    0.0000 H       1  UNL1        0.0591
     33 H           6.2772    1.1122    0.0000 H       1  UNL1        0.0591
     34 H           5.4888    1.3698    0.0000 H       1  UNL1        0.0591
     35 H           5.3305    1.8082    0.0000 H       1  UNL1        0.2105
     36 H           4.2566   -1.8118    0.0000 H       1  UNL1        0.2105
     37 H           4.7759   -2.3735    0.0000 H       1  UNL1        0.0659
     38 H           4.8091    2.3725    0.0000 H       1  UNL1        0.0659
     39 H           7.4430   -1.5018    0.0000 H       1  UNL1        0.0622
     40 H           2.1405    1.5054    0.0000 H       1  UNL1        0.0622
     41 H           7.9463   -3.0416    0.0000 H       1  UNL1        0.0655
     42 H           1.6399    3.0462    0.0000 H       1  UNL1        0.0655
     43 H           2.0000    4.7404    0.0000 H       1  UNL1        0.2923
     44 H           7.5891   -4.7365    0.0000 H       1  UNL1        0.2923
     45 H           4.7468   -5.3393    0.0000 H       1  UNL1        0.0660
     46 H           5.5287   -5.7360    0.0000 H       1  UNL1        0.0660
     47 H           4.8434    5.3383    0.0000 H       1  UNL1        0.0660
     48 H           4.0621    5.7363    0.0000 H       1  UNL1        0.0660
     49 H           3.6641    4.9551    0.0000 H       1  UNL1        0.0660
     50 H           5.9254   -4.9541    0.0000 H       1  UNL1        0.0660
@<TRIPOS>BOND
     1     1    11    1
     2     1    14    1
     3     2    12    1
     4     2    13    1
     5     9     3    1
     6     3    35    1
     7    10     4    1
     8     4    36    1
     9     5    22    1
    10     5    28    1
    11     6    21    1
    12     6    27    1
    13     7    25    1
    14     7    43    1
    15     8    26    1
    16     8    44    1
    17     9    10    1
    18     9    11    1
    19     9    13    1
    20    10    12    1
    21    10    14    1
    22    11    15    1
    23    11    30    1
    24    12    16    1
    25    12    29    1
    26    13    33    1
    27    13    34    1
    28    14    31    1
    29    14    32    1
    30    15    17   ar
    31    15    19   ar
    32    16    18   ar
    33    16    20   ar
    34    17    22   ar
    35    17    38    1
    36    18    21   ar
    37    18    37    1
    38    19    23   ar
    39    19    40    1
    40    20    24   ar
    41    20    39    1
    42    21    26   ar
    43    22    25   ar
    44    23    25   ar
    45    23    42    1
    46    24    26   ar
    47    24    41    1
    48    27    45    1
    49    27    46    1
    50    27    50    1
    51    28    47    1
    52    28    48    1
    53    28    49    1
