@<TRIPOS>MOLECULE
IMPHY000642
 35 37 0 0 0
SMALL
GASTEIGER

@<TRIPOS>ATOM
      1 O           8.1821    1.7846    0.0000 O.3     1  UNL1       -0.5065
      2 O           2.0000   -1.7846    0.0000 O.3     1  UNL1       -0.5067
      3 C           6.3961   -1.2605    0.0000 C.3     1  UNL1       -0.0227
      4 C           6.3961   -0.2605    0.0000 C.ar    1  UNL1       -0.0330
      5 C           5.5301   -1.7605    0.0000 C.3     1  UNL1       -0.0230
      6 C           5.5301    0.2395    0.0000 C.ar    1  UNL1       -0.0134
      7 C           4.6641   -0.2605    0.0000 C.ar    1  UNL1       -0.0071
      8 C           4.6641   -1.2605    0.0000 C.ar    1  UNL1       -0.0353
      9 C           7.3062    0.2464    0.0000 C.ar    1  UNL1       -0.0053
     10 C           3.7702    0.2742    0.0000 C.ar    1  UNL1       -0.0142
     11 C           5.5141    1.2810    0.0000 C.ar    1  UNL1       -0.0503
     12 C           3.7702   -1.7951    0.0000 C.ar    1  UNL1       -0.0164
     13 C           7.3142    1.2880    0.0000 C.ar    1  UNL1        0.1200
     14 C           6.4121    1.8088    0.0000 C.ar    1  UNL1       -0.0193
     15 C           2.8641   -0.2397    0.0000 C.ar    1  UNL1       -0.0124
     16 C           2.8641   -1.2813    0.0000 C.ar    1  UNL1        0.1177
     17 C           8.1663   -0.2636    0.0000 C.3     1  UNL1       -0.0360
     18 C           3.7817    1.2741    0.0000 C.2     1  UNL1       -0.0610
     19 C           2.9215    1.7841    0.0000 C.2     1  UNL1       -0.0981
     20 H           6.6082   -1.8431    0.0000 H       1  UNL1        0.0317
     21 H           7.0067   -1.1528    0.0000 H       1  UNL1        0.0317
     22 H           5.1316   -2.2354    0.0000 H       1  UNL1        0.0317
     23 H           5.9286   -2.2354    0.0000 H       1  UNL1        0.0317
     24 H           4.9736    1.5848    0.0000 H       1  UNL1        0.0625
     25 H           3.7773   -2.4151    0.0000 H       1  UNL1        0.0657
     26 H           6.4097    2.4288    0.0000 H       1  UNL1        0.0654
     27 H           2.3284    0.0724    0.0000 H       1  UNL1        0.0660
     28 H           7.8502   -0.7969    0.0000 H       1  UNL1        0.0279
     29 H           8.6996   -0.5798    0.0000 H       1  UNL1        0.0279
     30 H           8.4825    0.2697    0.0000 H       1  UNL1        0.0279
     31 H           4.3222    1.5779    0.0000 H       1  UNL1        0.0618
     32 H           8.1845    2.4046    0.0000 H       1  UNL1        0.2921
     33 H           2.0024   -2.4046    0.0000 H       1  UNL1        0.2921
     34 H           2.9287    2.4041    0.0000 H       1  UNL1        0.0535
     35 H           2.3810    1.4803    0.0000 H       1  UNL1        0.0535
@<TRIPOS>BOND
     1     1    13    1
     2     1    32    1
     3     2    16    1
     4     2    33    1
     5     3     4    1
     6     3     5    1
     7     3    20    1
     8     3    21    1
     9     4     6   ar
    10     4     9   ar
    11     5     8    1
    12     5    22    1
    13     5    23    1
    14     6     7    1
    15     6    11   ar
    16     7     8   ar
    17     7    10   ar
    18     8    12   ar
    19     9    13   ar
    20     9    17    1
    21    10    15   ar
    22    10    18    1
    23    11    14   ar
    24    11    24    1
    25    12    16   ar
    26    12    25    1
    27    13    14   ar
    28    14    26    1
    29    15    16   ar
    30    15    27    1
    31    17    28    1
    32    17    29    1
    33    17    30    1
    34    18    19    2
    35    18    31    1
    36    19    34    1
    37    19    35    1
