@<TRIPOS>MOLECULE
IMPHY013654
 42 42 0 0 0
SMALL
GASTEIGER

@<TRIPOS>ATOM
      1 O           6.0010    3.5950    0.0000 O.3     1  UNL1       -0.3865
      2 O           7.7331    1.5950    0.0000 O.3     1  UNL1       -0.3861
      3 O           8.5991    3.0950    0.0000 O.3     1  UNL1       -0.3869
      4 O           5.1350    2.0950    0.0000 O.3     1  UNL1       -0.3811
      5 O           8.5991    5.0950    0.0000 O.3     1  UNL1       -0.3924
      6 O           6.8671    0.0950    0.0000 O.2     1  UNL1       -0.2858
      7 O           4.2690    0.5950    0.0000 O.2     1  UNL1       -0.2841
      8 O           2.5369   -4.4050    0.0000 O.3     1  UNL1       -0.5033
      9 O           4.2690   -5.4050    0.0000 O.3     1  UNL1       -0.5033
     10 C           6.8671    3.0950    0.0000 C.3     1  UNL1        0.1118
     11 C           6.8671    2.0950    0.0000 C.3     1  UNL1        0.1166
     12 C           7.7331    3.5950    0.0000 C.3     1  UNL1        0.1065
     13 C           6.0010    1.5950    0.0000 C.3     1  UNL1        0.1490
     14 C           7.7331    4.5950    0.0000 C.3     1  UNL1        0.0727
     15 C           6.0010    0.5950    0.0000 C.2     1  UNL1        0.2330
     16 C           5.1350    0.0950    0.0000 C.2     1  UNL1        0.2238
     17 C           5.1350   -0.9050    0.0000 C.2     1  UNL1       -0.0108
     18 C           4.2690   -1.4050    0.0000 C.2     1  UNL1       -0.0507
     19 C           4.2690   -2.4050    0.0000 C.ar    1  UNL1       -0.0212
     20 C           3.4030   -2.9050    0.0000 C.ar    1  UNL1       -0.0094
     21 C           5.1350   -2.9050    0.0000 C.ar    1  UNL1       -0.0509
     22 C           3.4030   -3.9050    0.0000 C.ar    1  UNL1        0.1588
     23 C           5.1350   -3.9050    0.0000 C.ar    1  UNL1       -0.0160
     24 C           4.2690   -4.4050    0.0000 C.ar    1  UNL1        0.1582
     25 H           6.3301    2.7850    0.0000 H       1  UNL1        0.0647
     26 H           7.4040    2.4050    0.0000 H       1  UNL1        0.0650
     27 H           7.7331    2.9750    0.0000 H       1  UNL1        0.0643
     28 H           5.4641    1.2850    0.0000 H       1  UNL1        0.0705
     29 H           7.5210    5.1776    0.0000 H       1  UNL1        0.0584
     30 H           7.1225    4.4873    0.0000 H       1  UNL1        0.0584
     31 H           6.0010    4.2150    0.0000 H       1  UNL1        0.2100
     32 H           8.2700    1.9050    0.0000 H       1  UNL1        0.2100
     33 H           9.1360    3.4050    0.0000 H       1  UNL1        0.2100
     34 H           5.1350    2.7150    0.0000 H       1  UNL1        0.2105
     35 H           8.5991    5.7150    0.0000 H       1  UNL1        0.2095
     36 H           5.6720   -1.2150    0.0000 H       1  UNL1        0.0657
     37 H           3.7320   -1.0950    0.0000 H       1  UNL1        0.0625
     38 H           2.8660   -2.5950    0.0000 H       1  UNL1        0.0661
     39 H           5.6720   -2.5950    0.0000 H       1  UNL1        0.0625
     40 H           5.6720   -4.2150    0.0000 H       1  UNL1        0.0655
     41 H           2.0000   -4.0950    0.0000 H       1  UNL1        0.2923
     42 H           4.8059   -5.7150    0.0000 H       1  UNL1        0.2923
@<TRIPOS>BOND
     1    10     1    1
     2     1    31    1
     3    11     2    1
     4     2    32    1
     5    12     3    1
     6     3    33    1
     7    13     4    1
     8     4    34    1
     9     5    14    1
    10     5    35    1
    11     6    15    2
    12     7    16    2
    13     8    22    1
    14     8    41    1
    15     9    24    1
    16     9    42    1
    17    10    11    1
    18    10    12    1
    19    10    25    1
    20    11    13    1
    21    11    26    1
    22    12    14    1
    23    12    27    1
    24    13    15    1
    25    13    28    1
    26    14    29    1
    27    14    30    1
    28    15    16    1
    29    16    17    1
    30    17    18    2
    31    17    36    1
    32    18    19    1
    33    18    37    1
    34    19    20   ar
    35    19    21   ar
    36    20    22   ar
    37    20    38    1
    38    21    23   ar
    39    21    39    1
    40    22    24   ar
    41    23    24   ar
    42    23    40    1
