@<TRIPOS>MOLECULE
IMPHY016104
 42 41 0 0 0
SMALL
GASTEIGER

@<TRIPOS>ATOM
      1 C           6.3301    0.4400    0.0000 C.3     1  UNL1       -0.0531
      2 C           7.1962   -0.0600    0.0000 C.3     1  UNL1       -0.0531
      3 C           5.4641   -0.0600    0.0000 C.3     1  UNL1       -0.0531
      4 C           8.0622    0.4400    0.0000 C.3     1  UNL1       -0.0530
      5 C           4.5981    0.4400    0.0000 C.3     1  UNL1       -0.0531
      6 C           8.9282   -0.0600    0.0000 C.3     1  UNL1       -0.0528
      7 C           3.7320   -0.0600    0.0000 C.3     1  UNL1       -0.0533
      8 C           9.7942    0.4400    0.0000 C.3     1  UNL1       -0.0496
      9 C           2.8660    0.4400    0.0000 C.3     1  UNL1       -0.0559
     10 C          10.6603   -0.0600    0.0000 C.3     1  UNL1       -0.0348
     11 C           2.0000   -0.0600    0.0000 C.3     1  UNL1       -0.0653
     12 C          11.5263    0.4400    0.0000 C.2     1  UNL1       -0.0882
     13 C          12.3923   -0.0600    0.0000 C.2     1  UNL1       -0.0910
     14 C          12.3923   -1.0600    0.0000 C.3     1  UNL1       -0.0468
     15 H           6.7287    0.9149    0.0000 H       1  UNL1        0.0265
     16 H           5.9316    0.9149    0.0000 H       1  UNL1        0.0265
     17 H           6.7976   -0.5349    0.0000 H       1  UNL1        0.0265
     18 H           7.5947   -0.5349    0.0000 H       1  UNL1        0.0265
     19 H           5.0656   -0.5349    0.0000 H       1  UNL1        0.0265
     20 H           5.8626   -0.5349    0.0000 H       1  UNL1        0.0265
     21 H           8.4607    0.9149    0.0000 H       1  UNL1        0.0265
     22 H           7.6636    0.9149    0.0000 H       1  UNL1        0.0265
     23 H           4.9966    0.9149    0.0000 H       1  UNL1        0.0265
     24 H           4.1996    0.9149    0.0000 H       1  UNL1        0.0265
     25 H           8.5297   -0.5349    0.0000 H       1  UNL1        0.0265
     26 H           9.3267   -0.5349    0.0000 H       1  UNL1        0.0265
     27 H           3.3335   -0.5349    0.0000 H       1  UNL1        0.0265
     28 H           4.1306   -0.5349    0.0000 H       1  UNL1        0.0265
     29 H          10.1928    0.9149    0.0000 H       1  UNL1        0.0268
     30 H           9.3957    0.9149    0.0000 H       1  UNL1        0.0268
     31 H           3.2646    0.9149    0.0000 H       1  UNL1        0.0263
     32 H           2.4675    0.9149    0.0000 H       1  UNL1        0.0263
     33 H          10.2617   -0.5349    0.0000 H       1  UNL1        0.0307
     34 H          11.0588   -0.5349    0.0000 H       1  UNL1        0.0307
     35 H           1.6900    0.4769    0.0000 H       1  UNL1        0.0230
     36 H           1.4631   -0.3700    0.0000 H       1  UNL1        0.0230
     37 H           2.3100   -0.5969    0.0000 H       1  UNL1        0.0230
     38 H          11.5263    1.0600    0.0000 H       1  UNL1        0.0569
     39 H          12.9292    0.2500    0.0000 H       1  UNL1        0.0566
     40 H          11.7723   -1.0600    0.0000 H       1  UNL1        0.0272
     41 H          12.3923   -1.6800    0.0000 H       1  UNL1        0.0272
     42 H          13.0123   -1.0600    0.0000 H       1  UNL1        0.0272
@<TRIPOS>BOND
     1     1     2    1
     2     1     3    1
     3     1    15    1
     4     1    16    1
     5     2     4    1
     6     2    17    1
     7     2    18    1
     8     3     5    1
     9     3    19    1
    10     3    20    1
    11     4     6    1
    12     4    21    1
    13     4    22    1
    14     5     7    1
    15     5    23    1
    16     5    24    1
    17     6     8    1
    18     6    25    1
    19     6    26    1
    20     7     9    1
    21     7    27    1
    22     7    28    1
    23     8    10    1
    24     8    29    1
    25     8    30    1
    26     9    11    1
    27     9    31    1
    28     9    32    1
    29    10    12    1
    30    10    33    1
    31    10    34    1
    32    11    35    1
    33    11    36    1
    34    11    37    1
    35    12    13    2
    36    12    38    1
    37    13    14    1
    38    13    39    1
    39    14    40    1
    40    14    41    1
    41    14    42    1
