@<TRIPOS>MOLECULE
IMPHY009586
 52 55 0 0 0
SMALL
GASTEIGER

@<TRIPOS>ATOM
      1 O           5.4641   -1.0000    0.0000 O.3     1  UNL1       -0.3661
      2 O           2.8660   -2.5000    0.0000 O.3     1  UNL1       -0.3891
      3 O           4.5981   -3.5000    0.0000 O.3     1  UNL1       -0.3867
      4 O           6.3580    0.4653    0.0000 O.2     1  UNL1       -0.4540
      5 O           2.8660    0.5000    0.0000 O.3     1  UNL1       -0.4945
      6 O           4.5981    3.5000    0.0000 O.3     1  UNL1       -0.5058
      7 O           6.3465    3.5346    0.0000 O.2     1  UNL1       -0.2869
      8 O          10.7205   -1.0341    0.0000 O.3     1  UNL1       -0.5068
      9 C           4.5981   -0.5000    0.0000 C.3     1  UNL1        0.0934
     10 C           3.7320   -2.0000    0.0000 C.3     1  UNL1        0.0861
     11 C           3.7320   -1.0000    0.0000 C.3     1  UNL1        0.0065
     12 C           4.5981   -2.5000    0.0000 C.3     1  UNL1        0.1069
     13 C           5.4641   -2.0000    0.0000 C.3     1  UNL1        0.0849
     14 C           4.5981    0.5000    0.0000 C.ar    1  UNL1        0.0659
     15 C           6.3301   -2.5000    0.0000 C.3     1  UNL1       -0.0361
     16 C           5.4641    1.0000    0.0000 C.ar    1  UNL1        0.1519
     17 C           3.7320    1.0000    0.0000 C.ar    1  UNL1        0.1327
     18 C           5.4641    2.0000    0.0000 C.ar    1  UNL1        0.1058
     19 C           3.7320    2.0000    0.0000 C.ar    1  UNL1        0.0228
     20 C           4.5981    2.5000    0.0000 C.ar    1  UNL1        0.1347
     21 C           6.3580    2.5347    0.0000 C.ar    1  UNL1        0.1966
     22 C           7.2641    0.9792    0.0000 C.ar    1  UNL1        0.1392
     23 C           7.2641    2.0208    0.0000 C.ar    1  UNL1        0.0288
     24 C           8.1282    0.4758    0.0000 C.ar    1  UNL1        0.0176
     25 C           2.0000    1.0000    0.0000 C.3     1  UNL1        0.0788
     26 C           8.1244   -0.5241    0.0000 C.ar    1  UNL1       -0.0476
     27 C           8.9962    0.9725    0.0000 C.ar    1  UNL1       -0.0476
     28 C           8.9884   -1.0275    0.0000 C.ar    1  UNL1       -0.0195
     29 C           9.8602    0.4692    0.0000 C.ar    1  UNL1       -0.0195
     30 C           9.8564   -0.5308    0.0000 C.ar    1  UNL1        0.1169
     31 H           5.3342   -0.0750    0.0000 H       1  UNL1        0.0649
     32 H           3.7320   -2.6200    0.0000 H       1  UNL1        0.0621
     33 H           3.5200   -0.4174    0.0000 H       1  UNL1        0.0319
     34 H           3.1215   -1.1077    0.0000 H       1  UNL1        0.0319
     35 H           5.1350   -2.8100    0.0000 H       1  UNL1        0.0645
     36 H           6.0010   -1.6900    0.0000 H       1  UNL1        0.0620
     37 H           6.0201   -3.0369    0.0000 H       1  UNL1        0.0255
     38 H           6.8671   -2.8100    0.0000 H       1  UNL1        0.0255
     39 H           6.6401   -1.9631    0.0000 H       1  UNL1        0.0255
     40 H           2.3291   -2.1900    0.0000 H       1  UNL1        0.2099
     41 H           4.0611   -3.8100    0.0000 H       1  UNL1        0.2100
     42 H           3.1951    2.3100    0.0000 H       1  UNL1        0.0691
     43 H           7.7998    2.3329    0.0000 H       1  UNL1        0.0693
     44 H           2.3100    1.5369    0.0000 H       1  UNL1        0.0660
     45 H           1.4631    1.3100    0.0000 H       1  UNL1        0.0660
     46 H           1.6900    0.4631    0.0000 H       1  UNL1        0.0660
     47 H           4.0611    3.8100    0.0000 H       1  UNL1        0.2922
     48 H           7.5862   -0.8321    0.0000 H       1  UNL1        0.0626
     49 H           8.9985    1.5925    0.0000 H       1  UNL1        0.0626
     50 H           8.9860   -1.6475    0.0000 H       1  UNL1        0.0654
     51 H          10.3984    0.7771    0.0000 H       1  UNL1        0.0654
     52 H          11.2586   -0.7262    0.0000 H       1  UNL1        0.2921
@<TRIPOS>BOND
     1     1     9    1
     2     1    13    1
     3    10     2    1
     4     2    40    1
     5    12     3    1
     6     3    41    1
     7     4    16   ar
     8     4    22   ar
     9     5    17    1
    10     5    25    1
    11     6    20    1
    12     6    47    1
    13     7    21    2
    14     8    30    1
    15     8    52    1
    16     9    11    1
    17     9    14    1
    18     9    31    1
    19    10    11    1
    20    10    12    1
    21    10    32    1
    22    11    33    1
    23    11    34    1
    24    12    13    1
    25    12    35    1
    26    13    15    1
    27    13    36    1
    28    14    16   ar
    29    14    17   ar
    30    15    37    1
    31    15    38    1
    32    15    39    1
    33    16    18   ar
    34    17    19   ar
    35    18    20   ar
    36    18    21   ar
    37    19    20   ar
    38    19    42    1
    39    21    23   ar
    40    22    23   ar
    41    22    24    1
    42    23    43    1
    43    24    26   ar
    44    24    27   ar
    45    25    44    1
    46    25    45    1
    47    25    46    1
    48    26    28   ar
    49    26    48    1
    50    27    29   ar
    51    27    49    1
    52    28    30   ar
    53    28    50    1
    54    29    30   ar
    55    29    51    1
