@<TRIPOS>MOLECULE
IMPHY007783
 52 54 0 0 0
SMALL
GASTEIGER

@<TRIPOS>ATOM
      1 O           2.6200   -0.1461    0.0000 O.3     1  UNL1       -0.4804
      2 O           2.6200   -1.8781    0.0000 O.2     1  UNL1       -0.2507
      3 C           5.6498   -0.5121    0.0000 C.3     1  UNL1       -0.0215
      4 C           5.6498   -1.5121    0.0000 C.3     1  UNL1       -0.0289
      5 C           4.7036   -1.8168    0.0000 C.3     1  UNL1       -0.0186
      6 C           6.5158   -0.0121    0.0000 C.3     1  UNL1       -0.0141
      7 C           4.7036   -0.2073    0.0000 C.3     1  UNL1       -0.0334
      8 C           4.1200   -1.0121    0.0000 C.3     1  UNL1        0.0622
      9 C           6.5158   -2.0121    0.0000 C.3     1  UNL1       -0.0455
     10 C           7.3819   -0.5121    0.0000 C.2     1  UNL1       -0.0690
     11 C           7.3819   -1.5121    0.0000 C.3     1  UNL1       -0.0312
     12 C           5.6498    0.4879    0.0000 C.3     1  UNL1       -0.0587
     13 C           6.4998    1.0294    0.0000 C.3     1  UNL1       -0.0449
     14 C           3.8936   -2.4032    0.0000 C.3     1  UNL1       -0.0588
     15 C           5.0110   -2.7684    0.0000 C.3     1  UNL1       -0.0588
     16 C           7.3978    1.5572    0.0000 C.3     1  UNL1       -0.0401
     17 C           8.2999    1.0364    0.0000 C.3     1  UNL1        0.0039
     18 C           8.2919   -0.0052    0.0000 C.2     1  UNL1       -0.0749
     19 C           3.1200   -1.0121    0.0000 C.2     1  UNL1        0.3084
     20 C           9.2999    1.0325    0.0000 C.3     1  UNL1       -0.0526
     21 C           8.8032    1.9005    0.0000 C.2     1  UNL1       -0.0815
     22 C           8.3066    2.7684    0.0000 C.2     1  UNL1       -0.1018
     23 H           5.5599   -2.3573    0.0000 H       1  UNL1        0.0312
     24 H           7.2487    0.4186    0.0000 H       1  UNL1        0.0351
     25 H           4.9546    0.3596    0.0000 H       1  UNL1        0.0279
     26 H           4.1662    0.1019    0.0000 H       1  UNL1        0.0279
     27 H           3.8383   -0.4598    0.0000 H       1  UNL1        0.0419
     28 H           6.1173   -2.4870    0.0000 H       1  UNL1        0.0271
     29 H           6.9144   -2.4870    0.0000 H       1  UNL1        0.0271
     30 H           7.5939   -2.0947    0.0000 H       1  UNL1        0.0310
     31 H           7.9925   -1.4044    0.0000 H       1  UNL1        0.0310
     32 H           6.2698    0.4879    0.0000 H       1  UNL1        0.0235
     33 H           5.6498    1.1079    0.0000 H       1  UNL1        0.0235
     34 H           5.0298    0.4879    0.0000 H       1  UNL1        0.0235
     35 H           6.2818    1.6098    0.0000 H       1  UNL1        0.0272
     36 H           5.8906    0.9139    0.0000 H       1  UNL1        0.0272
     37 H           3.5300   -1.9010    0.0000 H       1  UNL1        0.0235
     38 H           3.3914   -2.7668    0.0000 H       1  UNL1        0.0235
     39 H           4.2571   -2.9054    0.0000 H       1  UNL1        0.0235
     40 H           4.4210   -2.9590    0.0000 H       1  UNL1        0.0235
     41 H           5.2016   -3.3584    0.0000 H       1  UNL1        0.0235
     42 H           5.6010   -2.5778    0.0000 H       1  UNL1        0.0235
     43 H           7.7951    2.0332    0.0000 H       1  UNL1        0.0277
     44 H           6.9969    2.0301    0.0000 H       1  UNL1        0.0277
     45 H           8.8252   -0.3214    0.0000 H       1  UNL1        0.0580
     46 H           9.2975    0.4125    0.0000 H       1  UNL1        0.0241
     47 H           9.9199    1.0301    0.0000 H       1  UNL1        0.0241
     48 H           9.3023    1.6525    0.0000 H       1  UNL1        0.0241
     49 H           9.4232    1.8981    0.0000 H       1  UNL1        0.0575
     50 H           2.0000   -0.1461    0.0000 H       1  UNL1        0.2951
     51 H           8.6186    3.3041    0.0000 H       1  UNL1        0.0532
     52 H           7.6866    2.7708    0.0000 H       1  UNL1        0.0532
@<TRIPOS>BOND
     1     1    19    1
     2     1    50    1
     3     2    19    2
     4     3     4    1
     5     3     6    1
     6     3     7    1
     7     3    12    1
     8     4     5    1
     9     4     9    1
    10     4    23    1
    11     5     8    1
    12     5    14    1
    13     5    15    1
    14     6    10    1
    15     6    13    1
    16     6    24    1
    17     7     8    1
    18     7    25    1
    19     7    26    1
    20     8    19    1
    21     8    27    1
    22     9    11    1
    23     9    28    1
    24     9    29    1
    25    10    11    1
    26    10    18    2
    27    11    30    1
    28    11    31    1
    29    12    32    1
    30    12    33    1
    31    12    34    1
    32    13    16    1
    33    13    35    1
    34    13    36    1
    35    14    37    1
    36    14    38    1
    37    14    39    1
    38    15    40    1
    39    15    41    1
    40    15    42    1
    41    16    17    1
    42    16    43    1
    43    16    44    1
    44    17    18    1
    45    17    20    1
    46    17    21    1
    47    18    45    1
    48    20    46    1
    49    20    47    1
    50    20    48    1
    51    21    22    2
    52    21    49    1
    53    22    51    1
    54    22    52    1
