@<TRIPOS>MOLECULE
IMPHY015633
 25 24 0 0 0
SMALL
GASTEIGER

@<TRIPOS>ATOM
      1 O           2.5369   -0.2500    0.0000 O.3     1  UNL1       -0.3910
      2 C           7.7331   -0.2500    0.0000 C.3     1  UNL1       -0.0530
      3 C           6.8671    0.2500    0.0000 C.3     1  UNL1       -0.0496
      4 C           8.5991    0.2500    0.0000 C.3     1  UNL1       -0.0559
      5 C           6.0010   -0.2500    0.0000 C.3     1  UNL1       -0.0347
      6 C           9.4651   -0.2500    0.0000 C.3     1  UNL1       -0.0653
      7 C           5.1350    0.2500    0.0000 C.2     1  UNL1       -0.0858
      8 C           4.2690   -0.2500    0.0000 C.2     1  UNL1       -0.0629
      9 C           3.4030    0.2500    0.0000 C.3     1  UNL1        0.0624
     10 H           7.3346   -0.7249    0.0000 H       1  UNL1        0.0265
     11 H           8.1316   -0.7249    0.0000 H       1  UNL1        0.0265
     12 H           7.2656    0.7249    0.0000 H       1  UNL1        0.0268
     13 H           6.4685    0.7249    0.0000 H       1  UNL1        0.0268
     14 H           8.9976    0.7249    0.0000 H       1  UNL1        0.0263
     15 H           8.2006    0.7249    0.0000 H       1  UNL1        0.0263
     16 H           5.6025   -0.7249    0.0000 H       1  UNL1        0.0307
     17 H           6.3996   -0.7249    0.0000 H       1  UNL1        0.0307
     18 H           9.1551   -0.7869    0.0000 H       1  UNL1        0.0230
     19 H          10.0021   -0.5600    0.0000 H       1  UNL1        0.0230
     20 H           9.7751    0.2869    0.0000 H       1  UNL1        0.0230
     21 H           5.1350    0.8700    0.0000 H       1  UNL1        0.0570
     22 H           4.2690   -0.8700    0.0000 H       1  UNL1        0.0591
     23 H           3.8015    0.7249    0.0000 H       1  UNL1        0.0601
     24 H           3.0044    0.7249    0.0000 H       1  UNL1        0.0601
     25 H           2.0000    0.0600    0.0000 H       1  UNL1        0.2098
@<TRIPOS>BOND
     1     1     9    1
     2     1    25    1
     3     2     3    1
     4     2     4    1
     5     2    10    1
     6     2    11    1
     7     3     5    1
     8     3    12    1
     9     3    13    1
    10     4     6    1
    11     4    14    1
    12     4    15    1
    13     5     7    1
    14     5    16    1
    15     5    17    1
    16     6    18    1
    17     6    19    1
    18     6    20    1
    19     7     8    2
    20     7    21    1
    21     8     9    1
    22     8    22    1
    23     9    23    1
    24     9    24    1
