@<TRIPOS>MOLECULE
IMPHY009401
 94 100 0 0 0
SMALL
GASTEIGER

@<TRIPOS>ATOM
      1 O           5.4246   -0.6031    0.0000 O.3     1  UNL1       -0.4602
      2 O           7.8537    1.7082    0.0000 O.3     1  UNL1       -0.4602
      3 O           7.0522   -0.0107    0.0000 O.2     1  UNL1       -0.2505
      4 O           7.2613    3.3358    0.0000 O.2     1  UNL1       -0.2505
      5 O           3.7386   -3.2897    0.0000 O.3     1  UNL1       -0.4676
      6 O           8.8093   -0.0383    0.0000 O.3     1  UNL1       -0.4676
      7 O           3.6781   -1.5587    0.0000 O.2     1  UNL1       -0.2504
      8 O          10.5403    0.0221    0.0000 O.2     1  UNL1       -0.2504
      9 N          10.3657    4.3052    0.0000 N.3     1  UNL1       -0.2984
     10 N           8.0216   -3.1151    0.0000 N.3     1  UNL1       -0.2984
     11 C           5.7254    1.1026    0.0000 C.3     1  UNL1        0.0772
     12 C           6.1480    2.0089    0.0000 C.3     1  UNL1        0.0772
     13 C           4.8191    1.5252    0.0000 C.3     1  UNL1        0.0054
     14 C           5.2417    2.4316    0.0000 C.3     1  UNL1        0.0054
     15 C          10.8435    2.3566    0.0000 C.3     1  UNL1        0.0268
     16 C           6.0731   -3.5929    0.0000 C.3     1  UNL1        0.0268
     17 C           7.0390   -3.8517    0.0000 C.3     1  UNL1        0.0138
     18 C          11.1023    3.3226    0.0000 C.3     1  UNL1        0.0138
     19 C           9.6225    1.4910    0.0000 C.3     1  UNL1        0.1087
     20 C           5.2074   -2.3718    0.0000 C.3     1  UNL1        0.1087
     21 C           5.7666   -1.5428    0.0000 C.3     1  UNL1        0.1188
     22 C           8.7934    2.0502    0.0000 C.3     1  UNL1        0.1188
     23 C           9.0691    3.0114    0.0000 C.3     1  UNL1        0.0008
     24 C           6.7279   -1.8184    0.0000 C.3     1  UNL1        0.0008
     25 C          12.2424    1.8478    0.0000 C.3     1  UNL1       -0.0350
     26 C           5.5643   -4.9918    0.0000 C.3     1  UNL1       -0.0350
     27 C          12.5013    2.8138    0.0000 C.3     1  UNL1       -0.0358
     28 C           6.5302   -5.2506    0.0000 C.3     1  UNL1       -0.0358
     29 C           7.0877    2.3510    0.0000 C.2     1  UNL1        0.3119
     30 C           6.0674    0.1629    0.0000 C.2     1  UNL1        0.3119
     31 C           3.8794    1.1832    0.0000 C.ar    1  UNL1       -0.0429
     32 C           4.8997    3.3712    0.0000 C.ar    1  UNL1       -0.0429
     33 C           9.8657    5.1712    0.0000 C.3     1  UNL1       -0.0122
     34 C           8.8877   -2.6151    0.0000 C.3     1  UNL1       -0.0122
     35 C           4.2080   -2.4067    0.0000 C.2     1  UNL1        0.3150
     36 C           9.6574    0.4916    0.0000 C.2     1  UNL1        0.3150
     37 C           3.1133    1.8260    0.0000 C.ar    1  UNL1       -0.0583
     38 C           5.5425    4.1373    0.0000 C.ar    1  UNL1       -0.0583
     39 C           3.7057    0.1984    0.0000 C.ar    1  UNL1       -0.0583
     40 C           3.9149    3.5449    0.0000 C.ar    1  UNL1       -0.0583
     41 C           2.1736    1.4840    0.0000 C.ar    1  UNL1       -0.0615
     42 C           5.2004    5.0770    0.0000 C.ar    1  UNL1       -0.0615
     43 C           2.7660   -0.1436    0.0000 C.ar    1  UNL1       -0.0615
     44 C           3.5728    4.4846    0.0000 C.ar    1  UNL1       -0.0615
     45 C           2.0000    0.4992    0.0000 C.ar    1  UNL1       -0.0617
     46 C           4.2156    5.2506    0.0000 C.ar    1  UNL1       -0.0617
     47 C           8.8442   -1.0377    0.0000 C.3     1  UNL1        0.0817
     48 C           2.7392   -3.3246    0.0000 C.3     1  UNL1        0.0817
     49 H           6.3448    1.0756    0.0000 H       1  UNL1        0.0428
     50 H           6.1750    2.6283    0.0000 H       1  UNL1        0.0428
     51 H           4.4002    1.9824    0.0000 H       1  UNL1        0.0363
     52 H           5.6988    2.8504    0.0000 H       1  UNL1        0.0363
     53 H           5.2521   -3.3729    0.0000 H       1  UNL1        0.0472
     54 H          10.6235    1.5356    0.0000 H       1  UNL1        0.0472
     55 H           7.8601   -4.0717    0.0000 H       1  UNL1        0.0464
     56 H          11.3223    4.1436    0.0000 H       1  UNL1        0.0464
     57 H           4.9069   -1.8296    0.0000 H       1  UNL1        0.0466
     58 H           9.0802    1.1904    0.0000 H       1  UNL1        0.0466
     59 H           5.1513   -1.4672    0.0000 H       1  UNL1        0.0743
     60 H           8.3400    2.4730    0.0000 H       1  UNL1        0.0743
     61 H           7.3479   -1.8134    0.0000 H       1  UNL1        0.0316
     62 H           6.8117   -1.2041    0.0000 H       1  UNL1        0.0316
     63 H           9.0640    3.6314    0.0000 H       1  UNL1        0.0316
     64 H           8.4548    3.0952    0.0000 H       1  UNL1        0.0316
     65 H          12.0475    1.2593    0.0000 H       1  UNL1        0.0281
     66 H          12.8364    1.6701    0.0000 H       1  UNL1        0.0281
     67 H           4.9757   -4.7969    0.0000 H       1  UNL1        0.0281
     68 H           5.3865   -5.5858    0.0000 H       1  UNL1        0.0281
     69 H          13.0952    2.6360    0.0000 H       1  UNL1        0.0281
     70 H          12.6962    3.4023    0.0000 H       1  UNL1        0.0281
     71 H           6.3524   -5.8446    0.0000 H       1  UNL1        0.0281
     72 H           7.1188   -5.4456    0.0000 H       1  UNL1        0.0281
     73 H           9.1977   -3.1520    0.0000 H       1  UNL1        0.0391
     74 H           9.4246   -2.3051    0.0000 H       1  UNL1        0.0391
     75 H          10.4026    5.4812    0.0000 H       1  UNL1        0.0391
     76 H           9.5557    5.7082    0.0000 H       1  UNL1        0.0391
     77 H           9.3288    4.8612    0.0000 H       1  UNL1        0.0391
     78 H           8.5777   -2.0781    0.0000 H       1  UNL1        0.0391
     79 H           6.1530    4.0296    0.0000 H       1  UNL1        0.0620
     80 H           3.2210    2.4366    0.0000 H       1  UNL1        0.0620
     81 H           3.5163    3.0699    0.0000 H       1  UNL1        0.0620
     82 H           4.1807   -0.2001    0.0000 H       1  UNL1        0.0620
     83 H           5.5990    5.5519    0.0000 H       1  UNL1        0.0618
     84 H           1.6987    1.8825    0.0000 H       1  UNL1        0.0618
     85 H           2.9623    4.5922    0.0000 H       1  UNL1        0.0618
     86 H           2.6584   -0.7542    0.0000 H       1  UNL1        0.0618
     87 H           1.4174    0.2871    0.0000 H       1  UNL1        0.0618
     88 H           4.0036    5.8332    0.0000 H       1  UNL1        0.0618
     89 H           8.2246   -1.0594    0.0000 H       1  UNL1        0.0661
     90 H           8.8659   -1.6573    0.0000 H       1  UNL1        0.0661
     91 H           9.4638   -1.0161    0.0000 H       1  UNL1        0.0661
     92 H           2.7176   -2.7050    0.0000 H       1  UNL1        0.0661
     93 H           2.1196   -3.3462    0.0000 H       1  UNL1        0.0661
     94 H           2.7608   -3.9442    0.0000 H       1  UNL1        0.0661
@<TRIPOS>BOND
     1    21     1    1
     2     1    30    1
     3    22     2    1
     4     2    29    1
     5     3    30    2
     6     4    29    2
     7     5    35    1
     8     5    48    1
     9     6    36    1
    10     6    47    1
    11     7    35    2
    12     8    36    2
    13     9    15    1
    14     9    18    1
    15     9    33    1
    16    10    16    1
    17    10    17    1
    18    10    34    1
    19    11    12    1
    20    11    13    1
    21    11    30    1
    22    11    49    1
    23    12    14    1
    24    12    29    1
    25    12    50    1
    26    13    14    1
    27    13    31    1
    28    13    51    1
    29    14    32    1
    30    14    52    1
    31    15    19    1
    32    15    25    1
    33    15    54    1
    34    16    20    1
    35    16    26    1
    36    16    53    1
    37    17    24    1
    38    17    28    1
    39    17    55    1
    40    18    23    1
    41    18    27    1
    42    18    56    1
    43    19    22    1
    44    19    36    1
    45    19    58    1
    46    20    21    1
    47    20    35    1
    48    20    57    1
    49    21    24    1
    50    21    59    1
    51    22    23    1
    52    22    60    1
    53    23    63    1
    54    23    64    1
    55    24    61    1
    56    24    62    1
    57    25    27    1
    58    25    65    1
    59    25    66    1
    60    26    28    1
    61    26    67    1
    62    26    68    1
    63    27    69    1
    64    27    70    1
    65    28    71    1
    66    28    72    1
    67    31    37   ar
    68    31    39   ar
    69    32    38   ar
    70    32    40   ar
    71    33    75    1
    72    33    76    1
    73    33    77    1
    74    34    73    1
    75    34    74    1
    76    34    78    1
    77    37    41   ar
    78    37    80    1
    79    38    42   ar
    80    38    79    1
    81    39    43   ar
    82    39    82    1
    83    40    44   ar
    84    40    81    1
    85    41    45   ar
    86    41    84    1
    87    42    46   ar
    88    42    83    1
    89    43    45   ar
    90    43    86    1
    91    44    46   ar
    92    44    85    1
    93    45    87    1
    94    46    88    1
    95    47    89    1
    96    47    90    1
    97    47    91    1
    98    48    92    1
    99    48    93    1
   100    48    94    1
