@<TRIPOS>MOLECULE
IMPHY012459
 82 87 0 0 0
SMALL
GASTEIGER

@<TRIPOS>ATOM
      1 O           7.7662    1.7624    0.0000 O.3     1  UNL1       -0.3871
      2 O           6.0010   -3.4411    0.0000 O.3     1  UNL1       -0.3454
      3 O           4.1621    5.2761    0.0000 O.3     1  UNL1       -0.4568
      4 O           4.2690   -3.4411    0.0000 O.3     1  UNL1       -0.3431
      5 O           6.0010   -5.4411    0.0000 O.3     1  UNL1       -0.3841
      6 O           4.7972    6.9411    0.0000 O.2     1  UNL1       -0.2456
      7 O           4.2690   -6.4411    0.0000 O.3     1  UNL1       -0.3744
      8 O           2.5369   -5.4411    0.0000 O.3     1  UNL1       -0.3866
      9 C           6.0380    0.7558    0.0000 C.3     1  UNL1       -0.0299
     10 C           6.0260   -0.2858    0.0000 C.3     1  UNL1       -0.0259
     11 C           6.9021    1.2591    0.0000 C.3     1  UNL1       -0.0077
     12 C           6.8982    2.2591    0.0000 C.3     1  UNL1        0.0818
     13 C           6.0303    2.7558    0.0000 C.3     1  UNL1        0.0223
     14 C           6.9260   -0.8101    0.0000 C.3     1  UNL1       -0.0330
     15 C           5.1701    1.2524    0.0000 C.3     1  UNL1       -0.0485
     16 C           7.8140    0.7558    0.0000 C.3     1  UNL1       -0.0470
     17 C           5.1662    2.2524    0.0000 C.3     1  UNL1       -0.0407
     18 C           7.8261   -0.2858    0.0000 C.3     1  UNL1       -0.0493
     19 C           5.0761   -0.8101    0.0000 C.3     1  UNL1       -0.0448
     20 C           7.6327    2.9290    0.0000 C.3     1  UNL1       -0.0041
     21 C           6.9386   -1.8950    0.0000 C.3     1  UNL1       -0.0232
     22 C           5.1619    0.2175    0.0000 C.3     1  UNL1       -0.0590
     23 C           6.2358    3.7284    0.0000 C.2     1  UNL1       -0.0359
     24 C           5.0635   -1.8950    0.0000 C.3     1  UNL1       -0.0260
     25 C           6.0010   -2.4411    0.0000 C.3     1  UNL1        0.0621
     26 C           5.1624    3.2524    0.0000 C.3     1  UNL1       -0.0529
     27 C           7.2241    3.8352    0.0000 C.2     1  UNL1       -0.0771
     28 C           5.5650    4.4701    0.0000 C.2     1  UNL1       -0.0001
     29 C           4.5708    4.3634    0.0000 C.3     1  UNL1        0.1183
     30 C           5.1350   -3.9411    0.0000 C.3     1  UNL1        0.1881
     31 C           5.7709    5.4487    0.0000 C.2     1  UNL1        0.0292
     32 C           5.1350   -4.9411    0.0000 C.3     1  UNL1        0.1344
     33 C           4.9038    5.9468    0.0000 C.2     1  UNL1        0.3326
     34 C           4.2690   -5.4411    0.0000 C.3     1  UNL1        0.1170
     35 C           3.4030   -3.9411    0.0000 C.3     1  UNL1        0.0873
     36 C           3.4030   -4.9411    0.0000 C.3     1  UNL1        0.1097
     37 C           2.5369   -3.4411    0.0000 C.3     1  UNL1       -0.0361
     38 C           3.4030   -6.9411    0.0000 C.3     1  UNL1        0.0370
     39 H           6.5737    0.4437    0.0000 H       1  UNL1        0.0310
     40 H           7.4354    1.5753    0.0000 H       1  UNL1        0.0332
     41 H           7.4653   -1.1159    0.0000 H       1  UNL1        0.0307
     42 H           4.5591    1.3577    0.0000 H       1  UNL1        0.0268
     43 H           4.9602    0.6690    0.0000 H       1  UNL1        0.0268
     44 H           8.4261    0.6567    0.0000 H       1  UNL1        0.0269
     45 H           8.0163    1.3418    0.0000 H       1  UNL1        0.0269
     46 H           4.9519    2.8342    0.0000 H       1  UNL1        0.0275
     47 H           4.5560    2.1424    0.0000 H       1  UNL1        0.0275
     48 H           8.0419   -0.8670    0.0000 H       1  UNL1        0.0268
     49 H           8.4357   -0.1727    0.0000 H       1  UNL1        0.0268
     50 H           4.8738   -0.2240    0.0000 H       1  UNL1        0.0271
     51 H           4.4640   -0.9091    0.0000 H       1  UNL1        0.0271
     52 H           8.0000    2.4296    0.0000 H       1  UNL1        0.0336
     53 H           8.1680    3.2418    0.0000 H       1  UNL1        0.0336
     54 H           7.1544   -2.4762    0.0000 H       1  UNL1        0.0293
     55 H           7.5482   -1.7819    0.0000 H       1  UNL1        0.0293
     56 H           5.4739    0.7533    0.0000 H       1  UNL1        0.0235
     57 H           4.6261    0.5296    0.0000 H       1  UNL1        0.0235
     58 H           4.8498   -0.3182    0.0000 H       1  UNL1        0.0235
     59 H           4.4539   -1.7819    0.0000 H       1  UNL1        0.0290
     60 H           4.8477   -2.4762    0.0000 H       1  UNL1        0.0290
     61 H           6.5386   -2.7501    0.0000 H       1  UNL1        0.0597
     62 H           5.4703    3.7905    0.0000 H       1  UNL1        0.0239
     63 H           4.6242    3.5603    0.0000 H       1  UNL1        0.0239
     64 H           4.8544    2.7143    0.0000 H       1  UNL1        0.0239
     65 H           7.5320    4.3734    0.0000 H       1  UNL1        0.0576
     66 H           8.3019    2.0745    0.0000 H       1  UNL1        0.2102
     67 H           3.9815    4.1706    0.0000 H       1  UNL1        0.0749
     68 H           4.7009    3.7573    0.0000 H       1  UNL1        0.0749
     69 H           5.1350   -3.3211    0.0000 H       1  UNL1        0.0937
     70 H           6.3367    5.7020    0.0000 H       1  UNL1        0.0693
     71 H           5.1350   -5.5611    0.0000 H       1  UNL1        0.0671
     72 H           3.7320   -5.7511    0.0000 H       1  UNL1        0.0650
     73 H           3.4030   -3.3211    0.0000 H       1  UNL1        0.0621
     74 H           3.4030   -5.5611    0.0000 H       1  UNL1        0.0646
     75 H           6.0010   -6.0611    0.0000 H       1  UNL1        0.2101
     76 H           2.8469   -2.9042    0.0000 H       1  UNL1        0.0255
     77 H           2.0000   -3.1311    0.0000 H       1  UNL1        0.0255
     78 H           2.2269   -3.9781    0.0000 H       1  UNL1        0.0255
     79 H           2.0000   -5.1311    0.0000 H       1  UNL1        0.2100
     80 H           3.0930   -6.4042    0.0000 H       1  UNL1        0.0524
     81 H           2.8660   -7.2511    0.0000 H       1  UNL1        0.0524
     82 H           3.7130   -7.4781    0.0000 H       1  UNL1        0.0524
@<TRIPOS>BOND
     1     1    12    1
     2     1    66    1
     3     2    25    1
     4     2    30    1
     5     3    29    1
     6     3    33    1
     7     4    30    1
     8     4    35    1
     9     5    32    1
    10     5    75    1
    11     6    33    2
    12     7    34    1
    13     7    38    1
    14     8    36    1
    15     8    79    1
    16     9    10    1
    17     9    11    1
    18     9    15    1
    19     9    39    1
    20    10    14    1
    21    10    19    1
    22    10    22    1
    23    11    12    1
    24    11    16    1
    25    11    40    1
    26    12    13    1
    27    12    20    1
    28    13    17    1
    29    13    23    1
    30    13    26    1
    31    14    18    1
    32    14    21    1
    33    14    41    1
    34    15    17    1
    35    15    42    1
    36    15    43    1
    37    16    18    1
    38    16    44    1
    39    16    45    1
    40    17    46    1
    41    17    47    1
    42    18    48    1
    43    18    49    1
    44    19    24    1
    45    19    50    1
    46    19    51    1
    47    20    27    1
    48    20    52    1
    49    20    53    1
    50    21    25    1
    51    21    54    1
    52    21    55    1
    53    22    56    1
    54    22    57    1
    55    22    58    1
    56    23    27    2
    57    23    28    1
    58    24    25    1
    59    24    59    1
    60    24    60    1
    61    25    61    1
    62    26    62    1
    63    26    63    1
    64    26    64    1
    65    27    65    1
    66    28    29    1
    67    28    31    2
    68    29    67    1
    69    29    68    1
    70    30    32    1
    71    30    69    1
    72    31    33    1
    73    31    70    1
    74    32    34    1
    75    32    71    1
    76    34    36    1
    77    34    72    1
    78    35    36    1
    79    35    37    1
    80    35    73    1
    81    36    74    1
    82    37    76    1
    83    37    77    1
    84    37    78    1
    85    38    80    1
    86    38    81    1
    87    38    82    1
