@<TRIPOS>MOLECULE
IMPHY011284
 89 95 0 0 0
SMALL
GASTEIGER

@<TRIPOS>ATOM
      1 O           7.2066    1.2758    0.0000 O.3     1  UNL1       -0.4482
      2 O          10.6999    3.2906    0.0000 O.3     1  UNL1       -0.5030
      3 O           7.7556    3.7303    0.0000 O.3     1  UNL1       -0.4884
      4 O           8.9657    4.2918    0.0000 O.3     1  UNL1       -0.4884
      5 O           6.6743    3.7214    0.0000 O.3     1  UNL1       -0.4914
      6 O           5.9340   -2.9296    0.0000 O.3     1  UNL1       -0.4523
      7 O           7.5064   -4.1713    0.0000 O.3     1  UNL1       -0.4914
      8 N           9.8338   -0.2166    0.0000 N.3     1  UNL1       -0.2977
      9 N           2.8660    1.7770    0.0000 N.3     1  UNL1       -0.2978
     10 C           8.9657    0.2846    0.0000 C.3     1  UNL1        0.0433
     11 C           8.9657    1.2870    0.0000 C.ar    1  UNL1        0.0228
     12 C           3.7341    1.2758    0.0000 C.3     1  UNL1        0.0397
     13 C          10.7020    0.2846    0.0000 C.3     1  UNL1        0.0033
     14 C           9.8338    1.7882    0.0000 C.ar    1  UNL1        0.0073
     15 C          10.7020    1.2870    0.0000 C.3     1  UNL1       -0.0109
     16 C           4.6022    1.7770    0.0000 C.ar    1  UNL1       -0.0231
     17 C           8.0976   -0.2166    0.0000 C.3     1  UNL1       -0.0076
     18 C           2.8660    2.7795    0.0000 C.3     1  UNL1        0.0032
     19 C           4.6022    2.7795    0.0000 C.ar    1  UNL1       -0.0378
     20 C           3.7341    3.2807    0.0000 C.3     1  UNL1       -0.0144
     21 C           8.0976    1.7882    0.0000 C.ar    1  UNL1        0.1788
     22 C           3.7341    0.2734    0.0000 C.3     1  UNL1       -0.0079
     23 C           9.8338    2.7906    0.0000 C.ar    1  UNL1        0.1660
     24 C           5.4704    1.2758    0.0000 C.ar    1  UNL1       -0.0107
     25 C           9.8338   -1.2166    0.0000 C.3     1  UNL1       -0.0122
     26 C           6.3385    1.7770    0.0000 C.ar    1  UNL1        0.1703
     27 C           7.9431   -1.1983    0.0000 C.ar    1  UNL1       -0.0419
     28 C           8.0976    2.7906    0.0000 C.ar    1  UNL1        0.2082
     29 C           5.4704    3.2807    0.0000 C.ar    1  UNL1       -0.0128
     30 C           8.9657    3.2918    0.0000 C.ar    1  UNL1        0.2073
     31 C           2.0000    1.2770    0.0000 C.3     1  UNL1       -0.0122
     32 C           6.3385    2.7795    0.0000 C.ar    1  UNL1        0.1624
     33 C           4.2424   -0.5074    0.0000 C.ar    1  UNL1       -0.0453
     34 C           7.0114   -1.5681    0.0000 C.ar    1  UNL1       -0.0124
     35 C           8.7292   -1.8204    0.0000 C.ar    1  UNL1       -0.0548
     36 C           5.2438   -0.4635    0.0000 C.ar    1  UNL1       -0.0550
     37 C           3.7797   -1.3966    0.0000 C.ar    1  UNL1       -0.0550
     38 C           6.8657   -2.5598    0.0000 C.ar    1  UNL1        0.1701
     39 C           8.5835   -2.8121    0.0000 C.ar    1  UNL1       -0.0160
     40 C           7.6518   -3.1819    0.0000 C.ar    1  UNL1        0.1621
     41 C           5.3198   -2.1981    0.0000 C.ar    1  UNL1        0.1286
     42 C           5.7826   -1.3088    0.0000 C.ar    1  UNL1       -0.0191
     43 C           4.3184   -2.2419    0.0000 C.ar    1  UNL1       -0.0191
     44 C           8.3984    4.4963    0.0000 C.3     1  UNL1        0.0791
     45 C           9.8318    4.7918    0.0000 C.3     1  UNL1        0.0791
     46 C           6.0264    4.4832    0.0000 C.3     1  UNL1        0.0790
     47 C           8.2906   -4.7918    0.0000 C.3     1  UNL1        0.0790
     48 H           8.9657   -0.3354    0.0000 H       1  UNL1        0.0517
     49 H           3.1972    0.9658    0.0000 H       1  UNL1        0.0515
     50 H          10.9140   -0.2980    0.0000 H       1  UNL1        0.0430
     51 H          11.3125    0.3922    0.0000 H       1  UNL1        0.0430
     52 H          11.3125    1.1793    0.0000 H       1  UNL1        0.0327
     53 H          10.9140    1.8696    0.0000 H       1  UNL1        0.0327
     54 H           7.9162    0.3762    0.0000 H       1  UNL1        0.0332
     55 H           7.4792   -0.2603    0.0000 H       1  UNL1        0.0332
     56 H           2.6540    3.3621    0.0000 H       1  UNL1        0.0430
     57 H           2.2554    2.6718    0.0000 H       1  UNL1        0.0430
     58 H           4.1327    3.7556    0.0000 H       1  UNL1        0.0326
     59 H           3.3356    3.7556    0.0000 H       1  UNL1        0.0326
     60 H           3.1478    0.4751    0.0000 H       1  UNL1        0.0332
     61 H           4.3285    0.4498    0.0000 H       1  UNL1        0.0332
     62 H           5.4704    0.6558    0.0000 H       1  UNL1        0.0659
     63 H           9.2139   -1.2166    0.0000 H       1  UNL1        0.0391
     64 H           9.8338   -1.8366    0.0000 H       1  UNL1        0.0391
     65 H          10.4538   -1.2166    0.0000 H       1  UNL1        0.0391
     66 H           5.4704    3.9007    0.0000 H       1  UNL1        0.0658
     67 H           1.6900    1.8140    0.0000 H       1  UNL1        0.0391
     68 H           1.4631    0.9671    0.0000 H       1  UNL1        0.0391
     69 H           2.3100    0.7401    0.0000 H       1  UNL1        0.0391
     70 H           6.5252   -1.1833    0.0000 H       1  UNL1        0.0658
     71 H           9.3054   -1.5917    0.0000 H       1  UNL1        0.0621
     72 H           5.5301    0.0865    0.0000 H       1  UNL1        0.0621
     73 H           3.1602   -1.4237    0.0000 H       1  UNL1        0.0621
     74 H          10.6999    3.9106    0.0000 H       1  UNL1        0.2923
     75 H           9.0697   -3.1969    0.0000 H       1  UNL1        0.0655
     76 H           6.4020   -1.2817    0.0000 H       1  UNL1        0.0654
     77 H           4.0321   -2.7919    0.0000 H       1  UNL1        0.0654
     78 H           8.8734    4.0978    0.0000 H       1  UNL1        0.0660
     79 H           8.7969    4.9713    0.0000 H       1  UNL1        0.0660
     80 H           7.9234    4.8949    0.0000 H       1  UNL1        0.0660
     81 H          10.1418    4.2549    0.0000 H       1  UNL1        0.0660
     82 H          10.3687    5.1018    0.0000 H       1  UNL1        0.0660
     83 H           9.5218    5.3287    0.0000 H       1  UNL1        0.0660
     84 H           6.4987    4.8848    0.0000 H       1  UNL1        0.0660
     85 H           5.6247    4.9555    0.0000 H       1  UNL1        0.0660
     86 H           5.5541    4.0815    0.0000 H       1  UNL1        0.0660
     87 H           7.9059   -5.2780    0.0000 H       1  UNL1        0.0660
     88 H           8.7768   -5.1765    0.0000 H       1  UNL1        0.0660
     89 H           8.6754   -4.3056    0.0000 H       1  UNL1        0.0660
@<TRIPOS>BOND
     1     1    21    1
     2     1    26    1
     3     2    23    1
     4     2    74    1
     5     3    28    1
     6     3    44    1
     7     4    30    1
     8     4    45    1
     9     5    32    1
    10     5    46    1
    11     6    38    1
    12     6    41    1
    13     7    40    1
    14     7    47    1
    15     8    10    1
    16     8    13    1
    17     8    25    1
    18     9    12    1
    19     9    18    1
    20     9    31    1
    21    10    11    1
    22    10    17    1
    23    10    48    1
    24    11    14   ar
    25    11    21   ar
    26    12    16    1
    27    12    22    1
    28    12    49    1
    29    13    15    1
    30    13    50    1
    31    13    51    1
    32    14    15    1
    33    14    23   ar
    34    15    52    1
    35    15    53    1
    36    16    19   ar
    37    16    24   ar
    38    17    27    1
    39    17    54    1
    40    17    55    1
    41    18    20    1
    42    18    56    1
    43    18    57    1
    44    19    20    1
    45    19    29   ar
    46    20    58    1
    47    20    59    1
    48    21    28   ar
    49    22    33    1
    50    22    60    1
    51    22    61    1
    52    23    30   ar
    53    24    26   ar
    54    24    62    1
    55    25    63    1
    56    25    64    1
    57    25    65    1
    58    26    32   ar
    59    27    34   ar
    60    27    35   ar
    61    28    30   ar
    62    29    32   ar
    63    29    66    1
    64    31    67    1
    65    31    68    1
    66    31    69    1
    67    33    36   ar
    68    33    37   ar
    69    34    38   ar
    70    34    70    1
    71    35    39   ar
    72    35    71    1
    73    36    42   ar
    74    36    72    1
    75    37    43   ar
    76    37    73    1
    77    38    40   ar
    78    39    40   ar
    79    39    75    1
    80    41    42   ar
    81    41    43   ar
    82    42    76    1
    83    43    77    1
    84    44    78    1
    85    44    79    1
    86    44    80    1
    87    45    81    1
    88    45    82    1
    89    45    83    1
    90    46    84    1
    91    46    85    1
    92    46    86    1
    93    47    87    1
    94    47    88    1
    95    47    89    1
