@<TRIPOS>MOLECULE
IMPHY015809
 20 20 0 0 0
SMALL
GASTEIGER

@<TRIPOS>ATOM
      1 O           3.7601    1.0162    0.0000 O.3     1  UNL1       -0.4221
      2 O           2.0000    1.2949    0.0000 O.2     1  UNL1       -0.2452
      3 C           4.5691    1.6039    0.0000 C.2     1  UNL1        0.1403
      4 C           4.2601    2.5550    0.0000 C.2     1  UNL1       -0.0118
      5 C           3.2601    2.5550    0.0000 C.2     1  UNL1        0.0264
      6 C           2.9511    1.6039    0.0000 C.2     1  UNL1        0.3373
      7 C           5.5202    1.2949    0.0000 C.2     1  UNL1        0.0312
      8 C           7.0949   -1.9485    0.0000 C.2     1  UNL1       -0.0789
      9 C           7.8381   -1.2794    0.0000 C.3     1  UNL1       -0.0459
     10 C           5.7281    0.3168    0.0000 C.1     1  UNL1       -0.0658
     11 C           6.1439   -1.6395    0.0000 C.2     1  UNL1       -0.0154
     12 C           5.9360   -0.6614    0.0000 C.1     1  UNL1       -0.0696
     13 H           4.6245    3.0566    0.0000 H       1  UNL1        0.0657
     14 H           2.8956    3.0566    0.0000 H       1  UNL1        0.0690
     15 H           5.9809    1.7098    0.0000 H       1  UNL1        0.0749
     16 H           7.2238   -2.5550    0.0000 H       1  UNL1        0.0575
     17 H           8.2529   -1.7402    0.0000 H       1  UNL1        0.0272
     18 H           8.2988   -0.8645    0.0000 H       1  UNL1        0.0272
     19 H           7.4232   -0.8187    0.0000 H       1  UNL1        0.0272
     20 H           5.6831   -2.0544    0.0000 H       1  UNL1        0.0709
@<TRIPOS>BOND
     1     1     3    1
     2     1     6    1
     3     2     6    2
     4     3     4    1
     5     3     7    2
     6     4     5    2
     7     4    13    1
     8     5     6    1
     9     5    14    1
    10     7    10    1
    11     7    15    1
    12     8     9    1
    13     8    11    2
    14     8    16    1
    15     9    17    1
    16     9    18    1
    17     9    19    1
    18    10    12    3
    19    11    12    1
    20    11    20    1
