@<TRIPOS>MOLECULE
IMPHY008497
 49 51 0 0 0
SMALL
GASTEIGER

@<TRIPOS>ATOM
      1 O           4.6587   -0.1537    0.0000 O.2     1  UNL1       -0.4542
      2 O           7.9710    0.2064    0.0000 O.3     1  UNL1       -0.3783
      3 O           3.7357   -3.7415    0.0000 O.3     1  UNL1       -0.4914
      4 O           4.6056    4.2425    0.0000 O.3     1  UNL1       -0.4914
      5 O           5.4677   -4.7415    0.0000 O.3     1  UNL1       -0.5033
      6 O           2.6166    4.0334    0.0000 O.3     1  UNL1       -0.5033
      7 C           6.2768   -0.1537    0.0000 C.ar    1  UNL1        0.0273
      8 C           5.9677    0.7974    0.0000 C.ar    1  UNL1        0.0013
      9 C           5.4677   -0.7415    0.0000 C.ar    1  UNL1        0.1414
     10 C           4.9677    0.7974    0.0000 C.ar    1  UNL1        0.1390
     11 C           5.4677   -1.7415    0.0000 C.ar    1  UNL1        0.0213
     12 C           7.2278   -0.4627    0.0000 C.3     1  UNL1        0.0761
     13 C           4.3800    1.6064    0.0000 C.ar    1  UNL1        0.0212
     14 C           6.5555    1.6064    0.0000 C.3     1  UNL1       -0.0358
     15 C           4.6017   -2.2415    0.0000 C.ar    1  UNL1       -0.0056
     16 C           4.7867    2.5199    0.0000 C.ar    1  UNL1       -0.0056
     17 C           6.3338   -2.2415    0.0000 C.ar    1  UNL1       -0.0474
     18 C           3.3854    1.5018    0.0000 C.ar    1  UNL1       -0.0474
     19 C           4.6017   -3.2415    0.0000 C.ar    1  UNL1        0.1619
     20 C           4.1989    3.3289    0.0000 C.ar    1  UNL1        0.1619
     21 C           6.3338   -3.2415    0.0000 C.ar    1  UNL1       -0.0159
     22 C           2.7976    2.3109    0.0000 C.ar    1  UNL1       -0.0159
     23 C           5.4677   -3.7415    0.0000 C.ar    1  UNL1        0.1585
     24 C           3.2044    3.2244    0.0000 C.ar    1  UNL1        0.1585
     25 C           8.9220   -0.1026    0.0000 C.3     1  UNL1        0.0369
     26 C           3.7357   -4.7415    0.0000 C.3     1  UNL1        0.0790
     27 C           4.0179    5.0515    0.0000 C.3     1  UNL1        0.0790
     28 H           6.9368   -1.0102    0.0000 H       1  UNL1        0.0611
     29 H           7.7164   -0.8444    0.0000 H       1  UNL1        0.0611
     30 H           7.0571    1.2419    0.0000 H       1  UNL1        0.0279
     31 H           6.9200    2.1080    0.0000 H       1  UNL1        0.0279
     32 H           6.0539    1.9708    0.0000 H       1  UNL1        0.0279
     33 H           4.0648   -1.9315    0.0000 H       1  UNL1        0.0662
     34 H           5.4033    2.5847    0.0000 H       1  UNL1        0.0662
     35 H           6.8707   -1.9315    0.0000 H       1  UNL1        0.0626
     36 H           3.1333    0.9354    0.0000 H       1  UNL1        0.0626
     37 H           6.8707   -3.5515    0.0000 H       1  UNL1        0.0655
     38 H           2.1810    2.2460    0.0000 H       1  UNL1        0.0655
     39 H           8.7304   -0.6923    0.0000 H       1  UNL1        0.0524
     40 H           9.5117   -0.2942    0.0000 H       1  UNL1        0.0524
     41 H           9.1136    0.4870    0.0000 H       1  UNL1        0.0524
     42 H           6.0047   -5.0515    0.0000 H       1  UNL1        0.2923
     43 H           2.0000    3.9686    0.0000 H       1  UNL1        0.2923
     44 H           3.1157   -4.7415    0.0000 H       1  UNL1        0.0660
     45 H           3.7357   -5.3615    0.0000 H       1  UNL1        0.0660
     46 H           4.3557   -4.7415    0.0000 H       1  UNL1        0.0660
     47 H           4.5194    5.4159    0.0000 H       1  UNL1        0.0660
     48 H           3.6534    5.5531    0.0000 H       1  UNL1        0.0660
     49 H           3.5163    4.6871    0.0000 H       1  UNL1        0.0660
@<TRIPOS>BOND
     1     1     9   ar
     2     1    10   ar
     3     2    12    1
     4     2    25    1
     5     3    19    1
     6     3    26    1
     7     4    20    1
     8     4    27    1
     9     5    23    1
    10     5    42    1
    11     6    24    1
    12     6    43    1
    13     7     8   ar
    14     7     9   ar
    15     7    12    1
    16     8    10   ar
    17     8    14    1
    18     9    11    1
    19    10    13    1
    20    11    15   ar
    21    11    17   ar
    22    12    28    1
    23    12    29    1
    24    13    16   ar
    25    13    18   ar
    26    14    30    1
    27    14    31    1
    28    14    32    1
    29    15    19   ar
    30    15    33    1
    31    16    20   ar
    32    16    34    1
    33    17    21   ar
    34    17    35    1
    35    18    22   ar
    36    18    36    1
    37    19    23   ar
    38    20    24   ar
    39    21    23   ar
    40    21    37    1
    41    22    24   ar
    42    22    38    1
    43    25    39    1
    44    25    40    1
    45    25    41    1
    46    26    44    1
    47    26    45    1
    48    26    46    1
    49    27    47    1
    50    27    48    1
    51    27    49    1
