@<TRIPOS>MOLECULE
IMPHY003906
 29 30 0 0 0
SMALL
GASTEIGER

@<TRIPOS>ATOM
      1 O           2.0000    2.9400    0.0000 O.3     1  UNL1       -0.3907
      2 N           4.5981   -0.5600    0.0000 N.pl3   1  UNL1       -0.3238
      3 N           6.4103   -1.7553    0.0000 N.ar    1  UNL1       -0.3404
      4 N           3.7320   -2.0600    0.0000 N.ar    1  UNL1       -0.2187
      5 N           6.4103   -3.3647    0.0000 N.ar    1  UNL1       -0.2164
      6 N           4.5981   -3.5600    0.0000 N.ar    1  UNL1       -0.2144
      7 C           5.4641   -2.0600    0.0000 C.ar    1  UNL1        0.1253
      8 C           3.7320   -0.0600    0.0000 C.3     1  UNL1        0.0291
      9 C           4.5981   -1.5600    0.0000 C.ar    1  UNL1        0.1479
     10 C           3.7320    0.9400    0.0000 C.2     1  UNL1       -0.0660
     11 C           5.4641   -3.0600    0.0000 C.ar    1  UNL1        0.1825
     12 C           2.8660    1.4400    0.0000 C.2     1  UNL1       -0.0500
     13 C           2.8660    2.4400    0.0000 C.3     1  UNL1        0.0651
     14 C           6.9939   -2.5600    0.0000 C.ar    1  UNL1        0.0963
     15 C           2.0000    0.9400    0.0000 C.3     1  UNL1       -0.0416
     16 C           3.7320   -3.0600    0.0000 C.ar    1  UNL1        0.1205
     17 H           3.1215    0.0477    0.0000 H       1  UNL1        0.0505
     18 H           3.5200   -0.6426    0.0000 H       1  UNL1        0.0505
     19 H           5.1350   -0.2500    0.0000 H       1  UNL1        0.1478
     20 H           4.2690    1.2500    0.0000 H       1  UNL1        0.0588
     21 H           6.6029   -1.1660    0.0000 H       1  UNL1        0.1669
     22 H           3.4766    2.3323    0.0000 H       1  UNL1        0.0604
     23 H           3.0781    3.0226    0.0000 H       1  UNL1        0.0604
     24 H           7.6139   -2.5600    0.0000 H       1  UNL1        0.1027
     25 H           1.6900    1.4769    0.0000 H       1  UNL1        0.0275
     26 H           1.4631    0.6300    0.0000 H       1  UNL1        0.0275
     27 H           2.3100    0.4031    0.0000 H       1  UNL1        0.0275
     28 H           3.1951   -3.3700    0.0000 H       1  UNL1        0.1048
     29 H           2.0000    3.5600    0.0000 H       1  UNL1        0.2098
@<TRIPOS>BOND
     1     1    13    1
     2     1    29    1
     3     2     8    1
     4     2     9    1
     5     2    19    1
     6     3     7   ar
     7     3    14   ar
     8     3    21    1
     9     4     9   ar
    10     4    16   ar
    11     5    11   ar
    12     5    14   ar
    13     6    11   ar
    14     6    16   ar
    15     7     9   ar
    16     7    11   ar
    17     8    10    1
    18     8    17    1
    19     8    18    1
    20    10    12    2
    21    10    20    1
    22    12    13    1
    23    12    15    1
    24    13    22    1
    25    13    23    1
    26    14    24    1
    27    15    25    1
    28    15    26    1
    29    15    27    1
    30    16    28    1
