@<TRIPOS>MOLECULE
IMPHY000419
 138 145 0 0 0
SMALL
GASTEIGER

@<TRIPOS>ATOM
      1 O           8.5480   -3.5639    0.0000 O.3     1  UNL1       -0.3908
      2 O           9.5315    2.8964    0.0000 O.3     1  UNL1       -0.4574
      3 O          10.3312   -6.7082    0.0000 O.3     1  UNL1       -0.3450
      4 O           8.5991   -6.7082    0.0000 O.3     1  UNL1       -0.3405
      5 O           9.1678    4.5898    0.0000 O.2     1  UNL1       -0.2452
      6 O          10.3312   -8.7082    0.0000 O.3     1  UNL1       -0.3841
      7 O          10.4525    5.7515    0.0000 O.3     1  UNL1       -0.3438
      8 O           8.5991   -9.7082    0.0000 O.3     1  UNL1       -0.3864
      9 O           6.8671   -8.7082    0.0000 O.3     1  UNL1       -0.3865
     10 O           6.0010   -7.2082    0.0000 O.3     1  UNL1       -0.3460
     11 O          11.7372    6.9132    0.0000 O.3     1  UNL1       -0.3405
     12 O           9.1110    7.2350    0.0000 O.3     1  UNL1       -0.3841
     13 O           5.1350   -5.7082    0.0000 O.3     1  UNL1       -0.3405
     14 O           9.7250    9.1384    0.0000 O.3     1  UNL1       -0.3864
     15 O          11.6804    9.5584    0.0000 O.3     1  UNL1       -0.3865
     16 O           4.2690   -8.2082    0.0000 O.3     1  UNL1       -0.3841
     17 O           2.5369   -7.2082    0.0000 O.3     1  UNL1       -0.3864
     18 O          13.3288    9.0266    0.0000 O.3     1  UNL1       -0.3924
     19 O           2.5369   -5.2082    0.0000 O.3     1  UNL1       -0.3865
     20 O           3.4030   -3.7082    0.0000 O.3     1  UNL1       -0.3924
     21 C          10.3604   -0.5114    0.0000 C.3     1  UNL1       -0.0258
     22 C          11.2284   -1.0080    0.0000 C.3     1  UNL1       -0.0320
     23 C          11.2322   -2.0080    0.0000 C.3     1  UNL1       -0.0306
     24 C          10.3681   -2.5114    0.0000 C.3     1  UNL1       -0.0262
     25 C          10.5659    0.4612    0.0000 C.3     1  UNL1       -0.0294
     26 C           9.4963   -1.0147    0.0000 C.3     1  UNL1       -0.0468
     27 C          10.3561   -3.5529    0.0000 C.3     1  UNL1        0.0181
     28 C          11.9628   -0.3381    0.0000 C.3     1  UNL1       -0.0492
     29 C           9.5002   -2.0147    0.0000 C.3     1  UNL1       -0.0486
     30 C          11.5542    0.5681    0.0000 C.3     1  UNL1       -0.0491
     31 C          12.1442   -2.5114    0.0000 C.3     1  UNL1       -0.0311
     32 C           9.8952    1.2030    0.0000 C.3     1  UNL1       -0.0030
     33 C           9.4925   -0.0147    0.0000 C.3     1  UNL1       -0.0590
     34 C          11.2562   -4.0772    0.0000 C.2     1  UNL1       -0.0624
     35 C           9.4062   -4.0772    0.0000 C.3     1  UNL1        0.0669
     36 C          12.1562   -3.5529    0.0000 C.2     1  UNL1       -0.0838
     37 C           9.4920   -3.0496    0.0000 C.3     1  UNL1       -0.0532
     38 C          11.2687   -5.1621    0.0000 C.3     1  UNL1       -0.0046
     39 C           9.3936   -5.1621    0.0000 C.3     1  UNL1        0.0007
     40 C          10.2022    2.1547    0.0000 C.3     1  UNL1        0.1099
     41 C          10.3312   -5.7082    0.0000 C.3     1  UNL1        0.0678
     42 C           8.9175    0.9930    0.0000 C.3     1  UNL1       -0.0588
     43 C          11.1799    2.3647    0.0000 C.3     1  UNL1        0.0064
     44 C          11.4869    3.3164    0.0000 C.2     1  UNL1       -0.0570
     45 C           9.4651   -7.2082    0.0000 C.3     1  UNL1        0.1882
     46 C           9.8385    3.8481    0.0000 C.2     1  UNL1        0.3376
     47 C          10.8162    4.0581    0.0000 C.2     1  UNL1        0.0611
     48 C          12.4646    3.5264    0.0000 C.3     1  UNL1       -0.0428
     49 C           9.4651   -8.2082    0.0000 C.3     1  UNL1        0.1341
     50 C          11.1232    5.0098    0.0000 C.3     1  UNL1        0.0825
     51 C           8.5991   -8.7082    0.0000 C.3     1  UNL1        0.1141
     52 C           7.7331   -7.2082    0.0000 C.3     1  UNL1        0.1134
     53 C           7.7331   -8.2082    0.0000 C.3     1  UNL1        0.1119
     54 C           6.8671   -6.7082    0.0000 C.3     1  UNL1        0.0796
     55 C          10.7594    6.7032    0.0000 C.3     1  UNL1        0.1883
     56 C          10.0887    7.4450    0.0000 C.3     1  UNL1        0.1341
     57 C           5.1350   -6.7082    0.0000 C.3     1  UNL1        0.1880
     58 C          10.3957    8.3967    0.0000 C.3     1  UNL1        0.1141
     59 C          12.0441    7.8649    0.0000 C.3     1  UNL1        0.1130
     60 C          11.3734    8.6067    0.0000 C.3     1  UNL1        0.1119
     61 C           4.2690   -7.2082    0.0000 C.3     1  UNL1        0.1341
     62 C           3.4030   -6.7082    0.0000 C.3     1  UNL1        0.1141
     63 C          13.0219    8.0749    0.0000 C.3     1  UNL1        0.0730
     64 C           4.2690   -5.2082    0.0000 C.3     1  UNL1        0.1130
     65 C           3.4030   -5.7082    0.0000 C.3     1  UNL1        0.1119
     66 C           4.2690   -4.2082    0.0000 C.3     1  UNL1        0.0730
     67 H          12.0067   -1.3498    0.0000 H       1  UNL1        0.0309
     68 H          11.9634   -1.5745    0.0000 H       1  UNL1        0.0310
     69 H          11.1026   -2.9392    0.0000 H       1  UNL1        0.0313
     70 H          10.8685    1.2556    0.0000 H       1  UNL1        0.0310
     71 H           9.2820   -0.4329    0.0000 H       1  UNL1        0.0271
     72 H           8.8862   -1.1247    0.0000 H       1  UNL1        0.0271
     73 H          12.3302   -0.8376    0.0000 H       1  UNL1        0.0268
     74 H          12.4981   -0.0253    0.0000 H       1  UNL1        0.0268
     75 H           8.8892   -1.9094    0.0000 H       1  UNL1        0.0268
     76 H           9.2904   -2.5981    0.0000 H       1  UNL1        0.0268
     77 H          12.1431    0.7621    0.0000 H       1  UNL1        0.0268
     78 H          11.4231    1.1741    0.0000 H       1  UNL1        0.0268
     79 H          12.7562   -2.6104    0.0000 H       1  UNL1        0.0310
     80 H          12.3465   -1.9253    0.0000 H       1  UNL1        0.0310
     81 H           9.4793    1.6628    0.0000 H       1  UNL1        0.0337
     82 H           9.8004    0.5234    0.0000 H       1  UNL1        0.0235
     83 H           8.9544    0.2932    0.0000 H       1  UNL1        0.0235
     84 H           9.1846   -0.5528    0.0000 H       1  UNL1        0.0235
     85 H           8.8651   -4.3799    0.0000 H       1  UNL1        0.0603
     86 H          12.6955   -3.8588    0.0000 H       1  UNL1        0.0572
     87 H           9.8041   -2.5138    0.0000 H       1  UNL1        0.0239
     88 H           8.9563   -2.7375    0.0000 H       1  UNL1        0.0239
     89 H           9.1799   -3.5853    0.0000 H       1  UNL1        0.0239
     90 H          11.4845   -5.7434    0.0000 H       1  UNL1        0.0335
     91 H          11.8783   -5.0490    0.0000 H       1  UNL1        0.0335
     92 H           8.7840   -5.0490    0.0000 H       1  UNL1        0.0315
     93 H           9.1778   -5.7434    0.0000 H       1  UNL1        0.0315
     94 H          10.7723    1.5242    0.0000 H       1  UNL1        0.0740
     95 H          10.8687   -6.0172    0.0000 H       1  UNL1        0.0601
     96 H           8.7873    1.5992    0.0000 H       1  UNL1        0.0234
     97 H           8.3113    0.8628    0.0000 H       1  UNL1        0.0234
     98 H           9.0477    0.3868    0.0000 H       1  UNL1        0.0234
     99 H          11.2028    1.7451    0.0000 H       1  UNL1        0.0346
    100 H          11.7940    2.2797    0.0000 H       1  UNL1        0.0346
    101 H           8.0063   -3.8656    0.0000 H       1  UNL1        0.2098
    102 H          10.0021   -7.5182    0.0000 H       1  UNL1        0.0937
    103 H          12.5948    2.9202    0.0000 H       1  UNL1        0.0275
    104 H          13.0707    3.6566    0.0000 H       1  UNL1        0.0275
    105 H          12.3344    4.1325    0.0000 H       1  UNL1        0.0275
    106 H           9.4651   -8.8282    0.0000 H       1  UNL1        0.0671
    107 H          11.6712    4.7199    0.0000 H       1  UNL1        0.0613
    108 H          11.5038    5.4992    0.0000 H       1  UNL1        0.0613
    109 H           8.0622   -9.0182    0.0000 H       1  UNL1        0.0648
    110 H           7.7331   -6.5882    0.0000 H       1  UNL1        0.0647
    111 H           7.1962   -7.8982    0.0000 H       1  UNL1        0.0647
    112 H          10.3312   -9.3282    0.0000 H       1  UNL1        0.2101
    113 H           7.2656   -6.2333    0.0000 H       1  UNL1        0.0587
    114 H           6.4685   -6.2333    0.0000 H       1  UNL1        0.0587
    115 H           8.0622  -10.0182    0.0000 H       1  UNL1        0.2100
    116 H           6.8671   -9.3282    0.0000 H       1  UNL1        0.2100
    117 H          10.1533    6.5730    0.0000 H       1  UNL1        0.0938
    118 H           9.6729    7.9048    0.0000 H       1  UNL1        0.0671
    119 H           5.1350   -7.3282    0.0000 H       1  UNL1        0.0937
    120 H          10.5861    8.9867    0.0000 H       1  UNL1        0.0648
    121 H          12.4600    7.4051    0.0000 H       1  UNL1        0.0647
    122 H          11.9796    8.7369    0.0000 H       1  UNL1        0.0647
    123 H           3.7320   -7.5182    0.0000 H       1  UNL1        0.0671
    124 H           8.6952    7.6948    0.0000 H       1  UNL1        0.2101
    125 H           2.8660   -6.3982    0.0000 H       1  UNL1        0.0648
    126 H          13.0448    7.4554    0.0000 H       1  UNL1        0.0584
    127 H          13.6360    7.9900    0.0000 H       1  UNL1        0.0584
    128 H           4.8059   -4.8982    0.0000 H       1  UNL1        0.0647
    129 H           3.4030   -5.0882    0.0000 H       1  UNL1        0.0647
    130 H           9.9154    9.7285    0.0000 H       1  UNL1        0.2100
    131 H          11.2646   10.0182    0.0000 H       1  UNL1        0.2100
    132 H           3.7320   -8.5182    0.0000 H       1  UNL1        0.2101
    133 H           4.8796   -4.3159    0.0000 H       1  UNL1        0.0584
    134 H           4.4810   -3.6256    0.0000 H       1  UNL1        0.0584
    135 H           2.0000   -6.8982    0.0000 H       1  UNL1        0.2100
    136 H          13.9350    9.1568    0.0000 H       1  UNL1        0.2095
    137 H           2.0000   -5.5182    0.0000 H       1  UNL1        0.2100
    138 H           3.4030   -3.0882    0.0000 H       1  UNL1        0.2095
@<TRIPOS>BOND
     1    35     1    1
     2     1   101    1
     3     2    40    1
     4     2    46    1
     5    41     3    1
     6    45     3    1
     7     4    45    1
     8     4    52    1
     9     5    46    2
    10    49     6    1
    11     6   112    1
    12     7    50    1
    13    55     7    1
    14    51     8    1
    15     8   115    1
    16    53     9    1
    17     9   116    1
    18    10    54    1
    19    57    10    1
    20    11    55    1
    21    11    59    1
    22    56    12    1
    23    12   124    1
    24    13    57    1
    25    13    64    1
    26    58    14    1
    27    14   130    1
    28    60    15    1
    29    15   131    1
    30    61    16    1
    31    16   132    1
    32    62    17    1
    33    17   135    1
    34    18    63    1
    35    18   136    1
    36    65    19    1
    37    19   137    1
    38    20    66    1
    39    20   138    1
    40    21    22    1
    41    21    25    1
    42    21    26    1
    43    21    33    1
    44    22    23    1
    45    22    28    1
    46    22    67    1
    47    23    24    1
    48    23    31    1
    49    23    68    1
    50    24    27    1
    51    24    29    1
    52    24    69    1
    53    25    30    1
    54    25    32    1
    55    25    70    1
    56    26    29    1
    57    26    71    1
    58    26    72    1
    59    27    34    1
    60    27    35    1
    61    27    37    1
    62    28    30    1
    63    28    73    1
    64    28    74    1
    65    29    75    1
    66    29    76    1
    67    30    77    1
    68    30    78    1
    69    31    36    1
    70    31    79    1
    71    31    80    1
    72    32    40    1
    73    32    42    1
    74    32    81    1
    75    33    82    1
    76    33    83    1
    77    33    84    1
    78    34    36    2
    79    34    38    1
    80    35    39    1
    81    35    85    1
    82    36    86    1
    83    37    87    1
    84    37    88    1
    85    37    89    1
    86    38    41    1
    87    38    90    1
    88    38    91    1
    89    39    41    1
    90    39    92    1
    91    39    93    1
    92    40    43    1
    93    40    94    1
    94    41    95    1
    95    42    96    1
    96    42    97    1
    97    42    98    1
    98    43    44    1
    99    43    99    1
   100    43   100    1
   101    44    47    2
   102    44    48    1
   103    45    49    1
   104    45   102    1
   105    46    47    1
   106    47    50    1
   107    48   103    1
   108    48   104    1
   109    48   105    1
   110    49    51    1
   111    49   106    1
   112    50   107    1
   113    50   108    1
   114    51    53    1
   115    51   109    1
   116    52    53    1
   117    52    54    1
   118    52   110    1
   119    53   111    1
   120    54   113    1
   121    54   114    1
   122    55    56    1
   123    55   117    1
   124    56    58    1
   125    56   118    1
   126    57    61    1
   127    57   119    1
   128    58    60    1
   129    58   120    1
   130    59    60    1
   131    59    63    1
   132    59   121    1
   133    60   122    1
   134    61    62    1
   135    61   123    1
   136    62    65    1
   137    62   125    1
   138    63   126    1
   139    63   127    1
   140    64    65    1
   141    64    66    1
   142    64   128    1
   143    65   129    1
   144    66   133    1
   145    66   134    1
