@<TRIPOS>MOLECULE
IMPHY001958
 18 18 0 0 0
SMALL
GASTEIGER

@<TRIPOS>ATOM
      1 O           5.1350    1.6550    0.0000 O.3     1  UNL1       -0.5027
      2 O           6.8671    0.6550    0.0000 O.3     1  UNL1       -0.5009
      3 O           6.8671   -1.3450    0.0000 O.3     1  UNL1       -0.5032
      4 O           2.5369    0.1550    0.0000 O.3     1  UNL1       -0.4770
      5 O           3.4030    1.6550    0.0000 O.2     1  UNL1       -0.2450
      6 C           4.2690    0.1550    0.0000 C.ar    1  UNL1        0.1040
      7 C           5.1350    0.6550    0.0000 C.ar    1  UNL1        0.1762
      8 C           6.0010    0.1550    0.0000 C.ar    1  UNL1        0.2014
      9 C           4.2690   -0.8450    0.0000 C.ar    1  UNL1       -0.0405
     10 C           6.0010   -0.8450    0.0000 C.ar    1  UNL1        0.1620
     11 C           5.1350   -1.3450    0.0000 C.ar    1  UNL1       -0.0155
     12 C           3.4030    0.6550    0.0000 C.2     1  UNL1        0.3405
     13 H           3.7320   -1.1550    0.0000 H       1  UNL1        0.0628
     14 H           5.1350   -1.9650    0.0000 H       1  UNL1        0.0655
     15 H           5.6720    1.9650    0.0000 H       1  UNL1        0.2923
     16 H           7.4040    0.3450    0.0000 H       1  UNL1        0.2924
     17 H           6.8671   -1.9650    0.0000 H       1  UNL1        0.2923
     18 H           2.0000    0.4650    0.0000 H       1  UNL1        0.2954
@<TRIPOS>BOND
     1     1     7    1
     2     1    15    1
     3     2     8    1
     4     2    16    1
     5     3    10    1
     6     3    17    1
     7     4    12    1
     8     4    18    1
     9     5    12    2
    10     6     7   ar
    11     6     9   ar
    12     6    12    1
    13     7     8   ar
    14     8    10   ar
    15     9    11   ar
    16     9    13    1
    17    10    11   ar
    18    11    14    1
