@<TRIPOS>MOLECULE
IMPHY002323
 25 27 0 0 0
SMALL
GASTEIGER

@<TRIPOS>ATOM
      1 O        2517.3700 2449.9800    0.0000 O.3     1  UNL1       -0.4486
      2 C        2482.7300 2430.0200    0.0000 C.2     1  UNL1        0.3368
      3 C        2448.0900 2449.9800    0.0000 C.2     1  UNL1        0.0495
      4 C        2413.4500 2430.0200    0.0000 C.2     1  UNL1       -0.0236
      5 C        2413.4500 2390.0200    0.0000 C.3     1  UNL1        0.0306
      6 C        2448.0900 2489.9800    0.0000 C.3     1  UNL1        0.0375
      7 O        2482.7300 2390.0200    0.0000 O.2     1  UNL1       -0.2453
      8 C        2517.3700 2489.9800    0.0000 C.3     1  UNL1        0.1804
      9 C        2552.0100 2510.0200    0.0000 C.3     1  UNL1        0.0614
     10 C        2552.0100 2550.0200    0.0000 C.3     1  UNL1        0.0385
     11 C        2552.0100 2590.0200    0.0000 C.3     1  UNL1        0.0031
     12 C        2517.3700 2569.9800    0.0000 C.3     1  UNL1        0.0470
     13 C        2482.6300 2550.0200    0.0000 C.3     1  UNL1        0.1769
     14 C        2482.6300 2510.0200    0.0000 C.3     1  UNL1        0.1091
     15 C        2413.3500 2510.0200    0.0000 C.2     1  UNL1        0.0601
     16 C        2385.0600 2481.7400    0.0000 C.2     1  UNL1        0.0022
     17 C        2413.3500 2550.0200    0.0000 C.2     1  UNL1        0.3373
     18 O        2448.0900 2569.9800    0.0000 O.3     1  UNL1       -0.4490
     19 O        2378.7100 2569.9800    0.0000 O.2     1  UNL1       -0.2452
     20 C        2586.7500 2569.9800    0.0000 C.3     1  UNL1        0.1527
     21 O        2586.7500 2609.9800    0.0000 O.3     1  UNL1       -0.2231
     22 C        2621.2900 2550.0200    0.0000 C.3     1  UNL1        0.0372
     23 C        2621.2900 2510.0200    0.0000 C.3     1  UNL1        0.0247
     24 C        2586.7500 2489.9800    0.0000 C.2     1  UNL1       -0.0409
     25 C        2586.7500 2449.9800    0.0000 C.2     1  UNL1       -0.0090
@<TRIPOS>BOND
     1     1     2    1
     2     2     3    1
     3     2     7    2
     4     3     4    2
     5     3     6    1
     6     4     5    1
     7     8     1    1
     8     8     9    1
     9     8    14    1
    10     9    10    1
    11     9    24    1
    12    10    11    1
    13    10    12    1
    14    10    20    1
    15    13    12    1
    16    13    18    1
    17    14    13    1
    18    14    15    1
    19    15    16    2
    20    15    17    1
    21    17    19    2
    22    18    17    1
    23    20    21    1
    24    20    22    1
    25    23    22    1
    26    24    23    1
    27    24    25    2
