@<TRIPOS>MOLECULE
IMPHY011364
 57 62 0 0 0
SMALL
GASTEIGER

@<TRIPOS>ATOM
      1 O           3.6123   -1.7485    0.0000 O.3     1  UNL1       -0.4615
      2 O           4.1220    2.4736    0.0000 O.2     1  UNL1       -0.2971
      3 O           7.8206   -0.3502    0.0000 O.2     1  UNL1       -0.2964
      4 O           2.0000   -1.1157    0.0000 O.2     1  UNL1       -0.2512
      5 N           5.7662   -0.4838    0.0000 N.3     1  UNL1       -0.3006
      6 C           5.2241    0.1764    0.0000 C.3     1  UNL1        0.0037
      7 C           6.5137    1.7934    0.0000 C.3     1  UNL1       -0.0045
      8 C           5.6230    1.2344    0.0000 C.3     1  UNL1       -0.0252
      9 C           6.1446    0.1764    0.0000 C.3     1  UNL1        0.0269
     10 C           6.7185    0.8961    0.0000 C.3     1  UNL1        0.0407
     11 C           4.6502    0.8961    0.0000 C.3     1  UNL1        0.0316
     12 C           3.7400    0.7589    0.0000 C.3     1  UNL1       -0.0059
     13 C           7.5048    1.5821    0.0000 C.3     1  UNL1       -0.0358
     14 C           4.8878   -0.6804    0.0000 C.3     1  UNL1       -0.0076
     15 C           5.6844    2.1928    0.0000 C.3     1  UNL1        0.0130
     16 C           7.1884    2.4195    0.0000 C.3     1  UNL1       -0.0243
     17 C           8.2728    1.2508    0.0000 C.3     1  UNL1        0.0389
     18 C           4.8550    1.7934    0.0000 C.2     1  UNL1        0.1381
     19 C           7.5980    0.6248    0.0000 C.2     1  UNL1        0.1455
     20 C           4.2730   -0.2588    0.0000 C.3     1  UNL1        0.0051
     21 C           3.4038   -0.0979    0.0000 C.3     1  UNL1       -0.0084
     22 C           3.9777   -0.8176    0.0000 C.3     1  UNL1        0.1042
     23 C           8.0680    2.1482    0.0000 C.2     1  UNL1       -0.0659
     24 C           3.1166    1.5407    0.0000 C.3     1  UNL1       -0.0576
     25 C           6.2689   -1.3483    0.0000 C.3     1  UNL1       -0.0124
     26 C           8.8010    2.8284    0.0000 C.2     1  UNL1       -0.0988
     27 C           2.6235   -1.8975    0.0000 C.2     1  UNL1        0.3042
     28 C           2.2582   -2.8284    0.0000 C.3     1  UNL1        0.0332
     29 H           5.2542    2.0002    0.0000 H       1  UNL1        0.0313
     30 H           6.7540   -0.4161    0.0000 H       1  UNL1        0.0475
     31 H           7.1063    0.1397    0.0000 H       1  UNL1        0.0399
     32 H           4.0721    1.5192    0.0000 H       1  UNL1        0.0389
     33 H           7.9202    2.0424    0.0000 H       1  UNL1        0.0278
     34 H           7.4354    0.9660    0.0000 H       1  UNL1        0.0278
     35 H           4.8724   -1.3002    0.0000 H       1  UNL1        0.0307
     36 H           5.4956   -0.8033    0.0000 H       1  UNL1        0.0307
     37 H           6.0709    2.6776    0.0000 H       1  UNL1        0.0347
     38 H           5.2978    2.6776    0.0000 H       1  UNL1        0.0347
     39 H           7.4713    2.9712    0.0000 H       1  UNL1        0.0316
     40 H           6.6942    2.7939    0.0000 H       1  UNL1        0.0316
     41 H           9.0850    1.0003    0.0000 H       1  UNL1        0.0423
     42 H           3.6757   -0.4252    0.0000 H       1  UNL1        0.0432
     43 H           4.3108   -0.8777    0.0000 H       1  UNL1        0.0432
     44 H           2.8747    0.2253    0.0000 H       1  UNL1        0.0307
     45 H           2.9935   -0.5628    0.0000 H       1  UNL1        0.0307
     46 H           4.3642   -1.3023    0.0000 H       1  UNL1        0.0734
     47 H           3.6013    1.9273    0.0000 H       1  UNL1        0.0236
     48 H           2.7300    2.0255    0.0000 H       1  UNL1        0.0236
     49 H           2.6318    1.1542    0.0000 H       1  UNL1        0.0236
     50 H           5.7330   -1.6600    0.0000 H       1  UNL1        0.0391
     51 H           6.5806   -1.8842    0.0000 H       1  UNL1        0.0391
     52 H           6.8049   -1.0366    0.0000 H       1  UNL1        0.0391
     53 H           9.3935    2.6456    0.0000 H       1  UNL1        0.0535
     54 H           8.6631    3.4328    0.0000 H       1  UNL1        0.0535
     55 H           1.6810   -2.6019    0.0000 H       1  UNL1        0.0342
     56 H           2.0316   -3.4055    0.0000 H       1  UNL1        0.0342
     57 H           2.8353   -3.0549    0.0000 H       1  UNL1        0.0342
@<TRIPOS>BOND
     1    22     1    1
     2     1    27    1
     3     2    18    2
     4     3    19    2
     5     4    27    2
     6     5     9    1
     7     5    20    1
     8     5    25    1
     9     6     8    1
    10     6     9    1
    11     6    11    1
    12     6    14    1
    13     7     8    1
    14     7    10    1
    15     7    15    1
    16     7    16    1
    17     8    13    1
    18     8    29    1
    19     9    10    1
    20     9    30    1
    21    10    19    1
    22    10    31    1
    23    11    12    1
    24    11    18    1
    25    11    32    1
    26    12    20    1
    27    12    21    1
    28    12    24    1
    29    13    17    1
    30    13    33    1
    31    13    34    1
    32    14    22    1
    33    14    35    1
    34    14    36    1
    35    15    18    1
    36    15    37    1
    37    15    38    1
    38    16    23    1
    39    16    39    1
    40    16    40    1
    41    17    19    1
    42    17    23    1
    43    17    41    1
    44    20    42    1
    45    20    43    1
    46    21    22    1
    47    21    44    1
    48    21    45    1
    49    22    46    1
    50    23    26    2
    51    24    47    1
    52    24    48    1
    53    24    49    1
    54    25    50    1
    55    25    51    1
    56    25    52    1
    57    26    53    1
    58    26    54    1
    59    27    28    1
    60    28    55    1
    61    28    56    1
    62    28    57    1
