@<TRIPOS>MOLECULE
IMPHY009352
 33 34 0 0 0
SMALL
GASTEIGER

@<TRIPOS>ATOM
      1 O           7.2764   -1.1824    0.0000 O.3     1  UNL1       -0.4854
      2 C           7.8600   -0.3776    0.0000 C.3     1  UNL1        0.1117
      3 C           7.2764    0.4271    0.0000 C.3     1  UNL1        0.0241
      4 C           6.3301    0.1224    0.0000 C.ar    1  UNL1        0.0014
      5 C           6.3301   -0.8776    0.0000 C.ar    1  UNL1        0.1249
      6 C           8.6690   -0.9654    0.0000 C.3     1  UNL1       -0.0246
      7 C           8.6690    0.2102    0.0000 C.3     1  UNL1       -0.0246
      8 C           7.5870    1.3776    0.0000 C.3     1  UNL1       -0.0546
      9 C           5.4641    0.6224    0.0000 C.ar    1  UNL1       -0.0476
     10 C           5.4641   -1.3776    0.0000 C.ar    1  UNL1       -0.0191
     11 C           4.5981    0.1224    0.0000 C.ar    1  UNL1       -0.0248
     12 C           4.5981   -0.8776    0.0000 C.ar    1  UNL1       -0.0511
     13 C           3.7320    0.6224    0.0000 C.2     1  UNL1       -0.0588
     14 C           2.8660    0.1224    0.0000 C.2     1  UNL1       -0.0866
     15 C           2.0000    0.6224    0.0000 C.3     1  UNL1       -0.0465
     16 H           6.8389    0.8665    0.0000 H       1  UNL1        0.0386
     17 H           8.3046   -1.4670    0.0000 H       1  UNL1        0.0268
     18 H           9.1706   -1.3298    0.0000 H       1  UNL1        0.0268
     19 H           9.0334   -0.4638    0.0000 H       1  UNL1        0.0268
     20 H           9.0334   -0.2914    0.0000 H       1  UNL1        0.0268
     21 H           9.1706    0.5746    0.0000 H       1  UNL1        0.0268
     22 H           8.3046    0.7117    0.0000 H       1  UNL1        0.0268
     23 H           8.1763    1.1850    0.0000 H       1  UNL1        0.0237
     24 H           7.7796    1.9670    0.0000 H       1  UNL1        0.0237
     25 H           6.9977    1.5702    0.0000 H       1  UNL1        0.0237
     26 H           5.4641    1.2424    0.0000 H       1  UNL1        0.0627
     27 H           5.4641   -1.9976    0.0000 H       1  UNL1        0.0654
     28 H           4.0611   -1.1876    0.0000 H       1  UNL1        0.0625
     29 H           3.7320    1.2424    0.0000 H       1  UNL1        0.0620
     30 H           2.8660   -0.4976    0.0000 H       1  UNL1        0.0569
     31 H           2.3100    1.1593    0.0000 H       1  UNL1        0.0272
     32 H           1.4631    0.9324    0.0000 H       1  UNL1        0.0272
     33 H           1.6900    0.0854    0.0000 H       1  UNL1        0.0272
@<TRIPOS>BOND
     1     1     2    1
     2     1     5    1
     3     2     3    1
     4     2     6    1
     5     2     7    1
     6     3     4    1
     7     3     8    1
     8     3    16    1
     9     4     5   ar
    10     4     9   ar
    11     5    10   ar
    12     6    17    1
    13     6    18    1
    14     6    19    1
    15     7    20    1
    16     7    21    1
    17     7    22    1
    18     8    23    1
    19     8    24    1
    20     8    25    1
    21     9    11   ar
    22     9    26    1
    23    10    12   ar
    24    10    27    1
    25    11    12   ar
    26    11    13    1
    27    12    28    1
    28    13    14    2
    29    13    29    1
    30    14    15    1
    31    14    30    1
    32    15    31    1
    33    15    32    1
    34    15    33    1
