@<TRIPOS>MOLECULE
IMPHY016703
 42 44 0 0 0
SMALL
GASTEIGER

@<TRIPOS>ATOM
      1 O           2.9727   -1.4558    0.0000 O.3     1  UNL1       -0.3915
      2 C           4.7266    0.5757    0.0000 C.3     1  UNL1       -0.0182
      3 C           3.8606    0.0757    0.0000 C.3     1  UNL1       -0.0034
      4 C           2.9945    0.5757    0.0000 C.3     1  UNL1       -0.0264
      5 C           2.9945    1.5757    0.0000 C.3     1  UNL1       -0.0350
      6 C           3.6775    0.7587    0.0000 C.3     1  UNL1       -0.0432
      7 C           5.6366    0.0689    0.0000 C.3     1  UNL1       -0.0288
      8 C           4.7266    1.5757    0.0000 C.3     1  UNL1       -0.0463
      9 C           3.8606    2.0757    0.0000 C.3     1  UNL1       -0.0492
     10 C           3.8445   -0.9658    0.0000 C.3     1  UNL1        0.0591
     11 C           5.6446   -0.9727    0.0000 C.3     1  UNL1       -0.0450
     12 C           4.7425   -1.4936    0.0000 C.3     1  UNL1       -0.0261
     13 C           2.0000    0.6802    0.0000 C.3     1  UNL1       -0.0592
     14 C           2.5878   -0.3378    0.0000 C.3     1  UNL1       -0.0592
     15 C           6.6365    0.0804    0.0000 C.3     1  UNL1       -0.0593
     16 C           6.1265    0.9406    0.0000 C.3     1  UNL1       -0.0593
     17 H           3.3212   -0.2301    0.0000 H       1  UNL1        0.0336
     18 H           2.4576    1.8857    0.0000 H       1  UNL1        0.0306
     19 H           3.1081    0.5135    0.0000 H       1  UNL1        0.0274
     20 H           3.7499    0.1430    0.0000 H       1  UNL1        0.0274
     21 H           5.3372    1.4680    0.0000 H       1  UNL1        0.0271
     22 H           4.9386    2.1583    0.0000 H       1  UNL1        0.0271
     23 H           4.2591    2.5507    0.0000 H       1  UNL1        0.0268
     24 H           3.4620    2.5507    0.0000 H       1  UNL1        0.0268
     25 H           3.8385   -1.5858    0.0000 H       1  UNL1        0.0596
     26 H           5.8582   -1.5548    0.0000 H       1  UNL1        0.0271
     27 H           6.2546   -0.8619    0.0000 H       1  UNL1        0.0271
     28 H           4.3416   -1.9664    0.0000 H       1  UNL1        0.0290
     29 H           5.1398   -1.9695    0.0000 H       1  UNL1        0.0290
     30 H           2.0648    1.2968    0.0000 H       1  UNL1        0.0235
     31 H           1.3834    0.7450    0.0000 H       1  UNL1        0.0235
     32 H           1.9352    0.0636    0.0000 H       1  UNL1        0.0235
     33 H           2.0214   -0.0857    0.0000 H       1  UNL1        0.0235
     34 H           2.3356   -0.9042    0.0000 H       1  UNL1        0.0235
     35 H           3.1542   -0.5900    0.0000 H       1  UNL1        0.0235
     36 H           6.6437   -0.5395    0.0000 H       1  UNL1        0.0235
     37 H           7.2565    0.0876    0.0000 H       1  UNL1        0.0235
     38 H           6.6293    0.7004    0.0000 H       1  UNL1        0.0235
     39 H           6.6670    0.6368    0.0000 H       1  UNL1        0.0235
     40 H           6.4303    1.4811    0.0000 H       1  UNL1        0.0235
     41 H           5.5860    1.2444    0.0000 H       1  UNL1        0.0235
     42 H           2.9656   -2.0757    0.0000 H       1  UNL1        0.2098
@<TRIPOS>BOND
     1     1    10    1
     2     1    42    1
     3     2     3    1
     4     2     6    1
     5     2     7    1
     6     2     8    1
     7     3     4    1
     8     3    10    1
     9     3    17    1
    10     4     5    1
    11     4    13    1
    12     4    14    1
    13     5     6    1
    14     5     9    1
    15     5    18    1
    16     6    19    1
    17     6    20    1
    18     7    11    1
    19     7    15    1
    20     7    16    1
    21     8     9    1
    22     8    21    1
    23     8    22    1
    24     9    23    1
    25     9    24    1
    26    10    12    1
    27    10    25    1
    28    11    12    1
    29    11    26    1
    30    11    27    1
    31    12    28    1
    32    12    29    1
    33    13    30    1
    34    13    31    1
    35    13    32    1
    36    14    33    1
    37    14    34    1
    38    14    35    1
    39    15    36    1
    40    15    37    1
    41    15    38    1
    42    16    39    1
    43    16    40    1
    44    16    41    1
