@<TRIPOS>MOLECULE
IMPHY004558
 41 41 0 0 0
SMALL
GASTEIGER

@<TRIPOS>ATOM
      1 O           9.7942    2.0950    0.0000 O.3     1  UNL1       -0.3950
      2 O           7.1962    3.5950    0.0000 O.3     1  UNL1       -0.4793
      3 OXT         5.4641    3.5950    0.0000 O.2     1  UNL1       -0.2489
      4 O           2.8660   -3.9050    0.0000 O.3     1  UNL1       -0.4791
      5 OXT         2.0000   -2.4050    0.0000 O.2     1  UNL1       -0.2486
      6 O           6.3301   -3.9050    0.0000 O.3     1  UNL1       -0.4761
      7 OXT         7.1962   -2.4050    0.0000 O.2     1  UNL1       -0.2434
      8 N           5.4641    1.5950    0.0000 N.pl3   1  UNL1       -0.3373
      9 N           4.5981   -2.9050    0.0000 N.2     1  UNL1       -0.2620
     10 CA          6.3301    2.0950    0.0000 C.3     1  UNL1        0.1180
     11 C           7.1962    1.5950    0.0000 C.3     1  UNL1       -0.0221
     12 C           3.7320   -1.4050    0.0000 C.3     1  UNL1        0.0053
     13 C           8.0622    2.0950    0.0000 C.3     1  UNL1       -0.0275
     14 CA          3.7320   -2.4050    0.0000 C.3     1  UNL1        0.1519
     15 C           4.5981   -0.9050    0.0000 C.2     1  UNL1       -0.0414
     16 C           4.5981    0.0950    0.0000 C.2     1  UNL1       -0.0449
     17 C           8.9282    1.5950    0.0000 C.3     1  UNL1        0.0443
     18 C           5.4641   -1.4050    0.0000 C.2     1  UNL1       -0.0264
     19 C           5.4641    0.5950    0.0000 C.2     1  UNL1       -0.0097
     20 C           6.3301    3.0950    0.0000 C.2     1  UNL1        0.3252
     21 CA          5.4641   -2.4050    0.0000 C.2     1  UNL1        0.1433
     22 C           2.8660   -2.9050    0.0000 C.2     1  UNL1        0.3298
     23 C           6.3301   -2.9050    0.0000 C.2     1  UNL1        0.3549
     24 HA          5.7932    2.4050    0.0000 H       1  UNL1        0.0613
     25 H           6.7976    1.1200    0.0000 H       1  UNL1        0.0289
     26 H           7.5947    1.1200    0.0000 H       1  UNL1        0.0289
     27 H           3.5200   -0.8224    0.0000 H       1  UNL1        0.0339
     28 H           3.1215   -1.5127    0.0000 H       1  UNL1        0.0339
     29 H           8.4607    2.5700    0.0000 H       1  UNL1        0.0288
     30 H           7.6636    2.5700    0.0000 H       1  UNL1        0.0288
     31 HA          3.7320   -3.0250    0.0000 H       1  UNL1        0.0664
     32 H           4.9272    1.9050    0.0000 H       1  UNL1        0.1463
     33 H           4.0611    0.4050    0.0000 H       1  UNL1        0.0633
     34 H           8.5297    1.1200    0.0000 H       1  UNL1        0.0557
     35 H           9.3267    1.1200    0.0000 H       1  UNL1        0.0557
     36 H           6.0010   -1.0950    0.0000 H       1  UNL1        0.0644
     37 H           6.0010    0.2850    0.0000 H       1  UNL1        0.0778
     38 H          10.3312    1.7850    0.0000 H       1  UNL1        0.2094
     39 H           7.1962    4.2150    0.0000 H       1  UNL1        0.2951
     40 H           2.3291   -4.2150    0.0000 H       1  UNL1        0.2951
     41 H           6.8671   -4.2150    0.0000 H       1  UNL1        0.2955
@<TRIPOS>BOND
     1     1    17    1
     2     1    38    1
     3     2    20    1
     4     2    39    1
     5     3    20    2
     6     4    22    1
     7     4    40    1
     8     5    22    2
     9     6    23    1
    10     6    41    1
    11     7    23    2
    12    10     8    1
    13     8    19    1
    14     8    32    1
    15     9    14    1
    16     9    21    2
    17    10    11    1
    18    10    20    1
    19    10    24    1
    20    11    13    1
    21    11    25    1
    22    11    26    1
    23    12    14    1
    24    12    15    1
    25    12    27    1
    26    12    28    1
    27    13    17    1
    28    13    29    1
    29    13    30    1
    30    14    22    1
    31    14    31    1
    32    15    16    1
    33    15    18    2
    34    16    19    2
    35    16    33    1
    36    17    34    1
    37    17    35    1
    38    18    21    1
    39    18    36    1
    40    19    37    1
    41    21    23    1
