@<TRIPOS>MOLECULE
IMPHY008599
 38 41 0 0 0
SMALL
GASTEIGER

@<TRIPOS>ATOM
      1 O           9.0014   -1.0252    0.0000 O.3     1  UNL1       -0.4526
      2 O           9.0014   -2.6346    0.0000 O.3     1  UNL1       -0.4526
      3 O           2.0000    2.2446    0.0000 O.3     1  UNL1       -0.5068
      4 N           4.5231   -1.3091    0.0000 N.3     1  UNL1       -0.3087
      5 C           5.4292   -0.7952    0.0000 C.3     1  UNL1        0.0372
      6 C           6.3231   -1.3299    0.0000 C.ar    1  UNL1       -0.0233
      7 C           6.3231   -2.3299    0.0000 C.ar    1  UNL1       -0.0378
      8 C           5.4292   -2.8646    0.0000 C.3     1  UNL1       -0.0147
      9 C           4.5231   -2.3507    0.0000 C.3     1  UNL1        0.0004
     10 C           5.4407    0.2047    0.0000 C.3     1  UNL1       -0.0081
     11 C           7.1892   -0.8299    0.0000 C.ar    1  UNL1       -0.0112
     12 C           7.1892   -2.8299    0.0000 C.ar    1  UNL1       -0.0126
     13 C           8.0552   -1.3299    0.0000 C.ar    1  UNL1        0.1666
     14 C           4.5806    0.7147    0.0000 C.ar    1  UNL1       -0.0453
     15 C           8.0552   -2.3299    0.0000 C.ar    1  UNL1        0.1665
     16 C           3.7088    0.2247    0.0000 C.ar    1  UNL1       -0.0551
     17 C           4.5921    1.7146    0.0000 C.ar    1  UNL1       -0.0551
     18 C           9.5850   -1.8299    0.0000 C.3     1  UNL1        0.2332
     19 C           2.8486    0.7347    0.0000 C.ar    1  UNL1       -0.0199
     20 C           3.7319    2.2246    0.0000 C.ar    1  UNL1       -0.0199
     21 C           2.8602    1.7346    0.0000 C.ar    1  UNL1        0.1169
     22 H           4.8953   -0.4801    0.0000 H       1  UNL1        0.0513
     23 H           5.0356   -3.3436    0.0000 H       1  UNL1        0.0326
     24 H           5.8338   -3.3344    0.0000 H       1  UNL1        0.0326
     25 H           3.9123   -2.2446    0.0000 H       1  UNL1        0.0427
     26 H           4.3141   -2.9344    0.0000 H       1  UNL1        0.0427
     27 H           6.0500    0.0900    0.0000 H       1  UNL1        0.0332
     28 H           5.6595    0.7848    0.0000 H       1  UNL1        0.0332
     29 H           3.9874   -0.9970    0.0000 H       1  UNL1        0.1225
     30 H           7.1892   -0.2099    0.0000 H       1  UNL1        0.0659
     31 H           7.1892   -3.4499    0.0000 H       1  UNL1        0.0658
     32 H           3.7016   -0.3952    0.0000 H       1  UNL1        0.0621
     33 H           5.1326    2.0184    0.0000 H       1  UNL1        0.0621
     34 H          10.0459   -2.2446    0.0000 H       1  UNL1        0.1166
     35 H          10.0459   -1.4152    0.0000 H       1  UNL1        0.1166
     36 H           2.3081    0.4309    0.0000 H       1  UNL1        0.0654
     37 H           3.7391    2.8445    0.0000 H       1  UNL1        0.0654
     38 H           2.0072    2.8646    0.0000 H       1  UNL1        0.2921
@<TRIPOS>BOND
     1     1    13    1
     2     1    18    1
     3     2    15    1
     4     2    18    1
     5     3    21    1
     6     3    38    1
     7     4     5    1
     8     4     9    1
     9     4    29    1
    10     5     6    1
    11     5    10    1
    12     5    22    1
    13     6     7   ar
    14     6    11   ar
    15     7     8    1
    16     7    12   ar
    17     8     9    1
    18     8    23    1
    19     8    24    1
    20     9    25    1
    21     9    26    1
    22    10    14    1
    23    10    27    1
    24    10    28    1
    25    11    13   ar
    26    11    30    1
    27    12    15   ar
    28    12    31    1
    29    13    15   ar
    30    14    16   ar
    31    14    17   ar
    32    16    19   ar
    33    16    32    1
    34    17    20   ar
    35    17    33    1
    36    18    34    1
    37    18    35    1
    38    19    21   ar
    39    19    36    1
    40    20    21   ar
    41    20    37    1
