@<TRIPOS>MOLECULE
IMPHY017477
 37 38 0 0 0
SMALL
GASTEIGER

@<TRIPOS>ATOM
      1 O           6.1783   -0.4324    0.0000 O.3     1  UNL1       -0.4568
      2 O           7.7619    0.3724    0.0000 O.2     1  UNL1       -0.2453
      3 C           3.5000   -0.1276    0.0000 C.3     1  UNL1       -0.0044
      4 C           4.3660   -0.6276    0.0000 C.3     1  UNL1        0.0261
      5 C           5.2320   -0.1276    0.0000 C.3     1  UNL1        0.1175
      6 C           5.2320    0.8724    0.0000 C.3     1  UNL1        0.0281
      7 C           3.5000    0.8724    0.0000 C.3     1  UNL1       -0.0428
      8 C           4.3660    1.3724    0.0000 C.3     1  UNL1       -0.0418
      9 C           6.1783    1.1771    0.0000 C.2     1  UNL1        0.0361
     10 C           3.0000   -0.9937    0.0000 C.3     1  UNL1       -0.0554
     11 C           4.3660   -1.6276    0.0000 C.2     1  UNL1       -0.0723
     12 C           2.5000   -0.1276    0.0000 C.2     1  UNL1       -0.0845
     13 C           6.7619    0.3724    0.0000 C.2     1  UNL1        0.3353
     14 C           5.2320   -2.1276    0.0000 C.3     1  UNL1       -0.0436
     15 C           6.4889    2.1276    0.0000 C.2     1  UNL1       -0.0883
     16 C           3.5000   -2.1276    0.0000 C.2     1  UNL1       -0.0993
     17 C           2.0000    0.7384    0.0000 C.2     1  UNL1       -0.1021
     18 H           4.9030   -0.9376    0.0000 H       1  UNL1        0.0390
     19 H           5.2977   -0.7441    0.0000 H       1  UNL1        0.0746
     20 H           5.2977    1.4889    0.0000 H       1  UNL1        0.0387
     21 H           3.2880    1.4550    0.0000 H       1  UNL1        0.0274
     22 H           2.8894    0.7647    0.0000 H       1  UNL1        0.0274
     23 H           4.7646    1.8473    0.0000 H       1  UNL1        0.0273
     24 H           3.9675    1.8473    0.0000 H       1  UNL1        0.0273
     25 H           2.4631   -0.6837    0.0000 H       1  UNL1        0.0238
     26 H           2.6900   -1.5306    0.0000 H       1  UNL1        0.0238
     27 H           3.5369   -1.3036    0.0000 H       1  UNL1        0.0238
     28 H           2.1900   -0.6646    0.0000 H       1  UNL1        0.0572
     29 H           4.9220   -2.6646    0.0000 H       1  UNL1        0.0274
     30 H           5.7690   -2.4376    0.0000 H       1  UNL1        0.0274
     31 H           5.5420   -1.5907    0.0000 H       1  UNL1        0.0274
     32 H           7.0956    2.2555    0.0000 H       1  UNL1        0.0540
     33 H           6.0749    2.5891    0.0000 H       1  UNL1        0.0540
     34 H           2.9631   -1.8176    0.0000 H       1  UNL1        0.0534
     35 H           3.5000   -2.7476    0.0000 H       1  UNL1        0.0534
     36 H           2.3100    1.2753    0.0000 H       1  UNL1        0.0532
     37 H           1.3800    0.7384    0.0000 H       1  UNL1        0.0532
@<TRIPOS>BOND
     1     1     5    1
     2     1    13    1
     3     2    13    2
     4     3     4    1
     5     3     7    1
     6     3    10    1
     7     3    12    1
     8     4     5    1
     9     4    11    1
    10     4    18    1
    11     5     6    1
    12     5    19    1
    13     6     8    1
    14     6     9    1
    15     6    20    1
    16     7     8    1
    17     7    21    1
    18     7    22    1
    19     8    23    1
    20     8    24    1
    21     9    13    1
    22     9    15    2
    23    10    25    1
    24    10    26    1
    25    10    27    1
    26    11    14    1
    27    11    16    2
    28    12    17    2
    29    12    28    1
    30    14    29    1
    31    14    30    1
    32    14    31    1
    33    15    32    1
    34    15    33    1
    35    16    34    1
    36    16    35    1
    37    17    36    1
    38    17    37    1
