@<TRIPOS>MOLECULE
IMPHY000214
 108 113 0 0 0
SMALL
GASTEIGER

@<TRIPOS>ATOM
      1 O           2.5357   -0.4602    0.0000 O.3     1  UNL1       -0.3886
      2 O           2.5519    1.6314    0.0000 O.3     1  UNL1       -0.3892
      3 O           7.9222    4.6948    0.0000 O.3     1  UNL1       -0.3906
      4 O           5.8466   -1.3662    0.0000 O.3     1  UNL1       -0.3944
      5 O           4.8505   -2.3701    0.0000 O.3     1  UNL1       -0.3352
      6 O           2.9826   -1.8773    0.0000 O.3     1  UNL1       -0.3624
      7 O          11.4608    2.6264    0.0000 O.3     1  UNL1       -0.4802
      8 O          10.6064    1.1197    0.0000 O.2     1  UNL1       -0.2504
      9 O           2.3539   -3.2458    0.0000 O.3     1  UNL1       -0.3811
     10 O           3.8610   -5.1060    0.0000 O.3     1  UNL1       -0.3586
     11 O           2.9931   -4.6093    0.0000 O.3     1  UNL1       -0.3586
     12 O           5.7251   -4.5988    0.0000 O.3     1  UNL1       -0.3587
     13 O           4.8610   -5.1021    0.0000 O.3     1  UNL1       -0.3587
     14 O           6.8572   -4.0944    0.0000 O.3     1  UNL1       -0.3923
     15 C           7.0628    1.0922    0.0000 C.3     1  UNL1       -0.0194
     16 C           5.2868    1.0853    0.0000 C.3     1  UNL1       -0.0225
     17 C           6.1968    1.5922    0.0000 C.3     1  UNL1       -0.0257
     18 C           5.2787    0.0437    0.0000 C.3     1  UNL1       -0.0249
     19 C           7.9288    1.5922    0.0000 C.3     1  UNL1       -0.0050
     20 C           4.3433   -0.5060    0.0000 C.3     1  UNL1        0.0304
     21 C           7.0789    0.0507    0.0000 C.3     1  UNL1       -0.0463
     22 C           6.1808   -0.4771    0.0000 C.3     1  UNL1       -0.0485
     23 C           7.9288    2.5922    0.0000 C.2     1  UNL1       -0.0604
     24 C           4.3599    1.6494    0.0000 C.3     1  UNL1       -0.0184
     25 C           6.1968    2.5922    0.0000 C.3     1  UNL1       -0.0306
     26 C           8.8228    3.1268    0.0000 C.3     1  UNL1        0.0229
     27 C           8.8228    1.0575    0.0000 C.3     1  UNL1       -0.0424
     28 C           9.7288    2.6130    0.0000 C.3     1  UNL1        0.0765
     29 C           3.4037    0.0365    0.0000 C.3     1  UNL1        0.0892
     30 C           7.7056    0.3261    0.0000 C.3     1  UNL1       -0.0585
     31 C           3.4120    1.1215    0.0000 C.3     1  UNL1        0.0822
     32 C           5.2945    2.0853    0.0000 C.3     1  UNL1       -0.0589
     33 C           9.7288    1.5714    0.0000 C.3     1  UNL1       -0.0358
     34 C           7.0628    3.0922    0.0000 C.2     1  UNL1       -0.0836
     35 C           8.2709    0.6525    0.0000 C.3     1  UNL1       -0.0553
     36 C           3.8467   -1.3739    0.0000 C.3     1  UNL1        0.0145
     37 C           8.7977    4.2116    0.0000 C.3     1  UNL1        0.0678
     38 C           4.8466   -1.3701    0.0000 C.3     1  UNL1        0.0527
     39 C          10.6726    3.1482    0.0000 C.3     1  UNL1       -0.0360
     40 C           9.7288    4.7685    0.0000 C.3     1  UNL1       -0.0083
     41 C          10.6726    4.2332    0.0000 C.3     1  UNL1       -0.0445
     42 C           3.8505   -2.3739    0.0000 C.3     1  UNL1        0.2002
     43 C          10.5987    2.1197    0.0000 C.2     1  UNL1        0.3116
     44 C          10.2188    5.6402    0.0000 C.3     1  UNL1       -0.0574
     45 C           9.2188    5.6287    0.0000 C.3     1  UNL1       -0.0574
     46 C           3.3538   -3.2419    0.0000 C.3     1  UNL1        0.1674
     47 C           3.8572   -4.1060    0.0000 C.3     1  UNL1        0.2547
     48 C           5.3538   -3.2342    0.0000 C.3     1  UNL1        0.1436
     49 C           4.8572   -4.1021    0.0000 C.3     1  UNL1        0.2522
     50 C           6.3538   -3.2303    0.0000 C.3     1  UNL1        0.0758
     51 H           6.9329    2.0172    0.0000 H       1  UNL1        0.0315
     52 H           5.2820   -0.8063    0.0000 H       1  UNL1        0.0313
     53 H           7.2969   -0.5297    0.0000 H       1  UNL1        0.0271
     54 H           7.6880    0.1662    0.0000 H       1  UNL1        0.0271
     55 H           5.7835   -0.9531    0.0000 H       1  UNL1        0.0268
     56 H           6.5818   -0.9500    0.0000 H       1  UNL1        0.0268
     57 H           4.7681    2.1161    0.0000 H       1  UNL1        0.0296
     58 H           3.9700    2.1314    0.0000 H       1  UNL1        0.0296
     59 H           5.9847    3.1748    0.0000 H       1  UNL1        0.0310
     60 H           5.5862    2.4845    0.0000 H       1  UNL1        0.0310
     61 H           8.0786    3.5376    0.0000 H       1  UNL1        0.0382
     62 H           8.4182    0.5877    0.0000 H       1  UNL1        0.0274
     63 H           9.2164    0.5785    0.0000 H       1  UNL1        0.0274
     64 H           3.4025   -0.5835    0.0000 H       1  UNL1        0.0625
     65 H           7.2306   -0.0724    0.0000 H       1  UNL1        0.0235
     66 H           8.1041   -0.1488    0.0000 H       1  UNL1        0.0235
     67 H           8.1805    0.7247    0.0000 H       1  UNL1        0.0235
     68 H           2.8722    0.8167    0.0000 H       1  UNL1        0.0619
     69 H           5.9145    2.0805    0.0000 H       1  UNL1        0.0235
     70 H           5.2993    2.7053    0.0000 H       1  UNL1        0.0235
     71 H           4.6745    2.0901    0.0000 H       1  UNL1        0.0235
     72 H           9.9379    0.9877    0.0000 H       1  UNL1        0.0276
     73 H          10.3397    1.6775    0.0000 H       1  UNL1        0.0276
     74 H           7.0628    3.7122    0.0000 H       1  UNL1        0.0572
     75 H           7.6884    0.4404    0.0000 H       1  UNL1        0.0238
     76 H           8.4830    0.0699    0.0000 H       1  UNL1        0.0238
     77 H           8.8535    0.8646    0.0000 H       1  UNL1        0.0238
     78 H           3.4463   -0.9005    0.0000 H       1  UNL1        0.0325
     79 H           4.4462   -1.5321    0.0000 H       1  UNL1        0.0325
     80 H           8.2674    3.8902    0.0000 H       1  UNL1        0.0605
     81 H           4.2649   -1.5844    0.0000 H       1  UNL1        0.0563
     82 H           4.9567   -1.9802    0.0000 H       1  UNL1        0.0563
     83 H          10.8817    2.5645    0.0000 H       1  UNL1        0.0276
     84 H          11.2835    3.2543    0.0000 H       1  UNL1        0.0276
     85 H          11.2835    4.1271    0.0000 H       1  UNL1        0.0272
     86 H          10.8817    4.8169    0.0000 H       1  UNL1        0.0272
     87 H           2.0000   -0.1481    0.0000 H       1  UNL1        0.2099
     88 H           2.5590    2.2514    0.0000 H       1  UNL1        0.2099
     89 H          10.7593    5.3364    0.0000 H       1  UNL1        0.0236
     90 H          10.5226    6.1807    0.0000 H       1  UNL1        0.0236
     91 H           9.6783    5.9440    0.0000 H       1  UNL1        0.0236
     92 H           9.7522    5.9448    0.0000 H       1  UNL1        0.0236
     93 H           8.9027    6.1620    0.0000 H       1  UNL1        0.0236
     94 H           8.6855    5.3125    0.0000 H       1  UNL1        0.0236
     95 H           3.0418   -2.7062    0.0000 H       1  UNL1        0.0704
     96 H           7.9102    5.3146    0.0000 H       1  UNL1        0.2098
     97 H           6.1587   -1.9020    0.0000 H       1  UNL1        0.2094
     98 H           2.4468   -2.1894    0.0000 H       1  UNL1        0.2128
     99 H           5.6618   -2.6960    0.0000 H       1  UNL1        0.0676
    100 H          12.0001    2.3205    0.0000 H       1  UNL1        0.2951
    101 H           2.0460   -3.7839    0.0000 H       1  UNL1        0.2102
    102 H           6.9356   -3.0160    0.0000 H       1  UNL1        0.0585
    103 H           6.2438   -2.6202    0.0000 H       1  UNL1        0.0585
    104 H           3.3253   -5.4180    0.0000 H       1  UNL1        0.2130
    105 H           2.4550   -4.3014    0.0000 H       1  UNL1        0.2130
    106 H           5.7275   -5.2188    0.0000 H       1  UNL1        0.2130
    107 H           4.5531   -5.6402    0.0000 H       1  UNL1        0.2130
    108 H           7.4772   -4.0920    0.0000 H       1  UNL1        0.2095
@<TRIPOS>BOND
     1    29     1    1
     2     1    87    1
     3    31     2    1
     4     2    88    1
     5    37     3    1
     6     3    96    1
     7     4    38    1
     8     4    97    1
     9     5    42    1
    10     5    48    1
    11    42     6    1
    12     6    98    1
    13     7    43    1
    14     7   100    1
    15     8    43    2
    16    46     9    1
    17     9   101    1
    18    10    47    1
    19    10   104    1
    20    11    47    1
    21    11   105    1
    22    12    49    1
    23    12   106    1
    24    13    49    1
    25    13   107    1
    26    14    50    1
    27    14   108    1
    28    15    17    1
    29    15    19    1
    30    15    21    1
    31    15    30    1
    32    16    17    1
    33    16    18    1
    34    16    24    1
    35    16    32    1
    36    17    25    1
    37    17    51    1
    38    18    20    1
    39    18    22    1
    40    18    52    1
    41    19    23    1
    42    19    27    1
    43    19    35    1
    44    20    29    1
    45    20    36    1
    46    20    38    1
    47    21    22    1
    48    21    53    1
    49    21    54    1
    50    22    55    1
    51    22    56    1
    52    23    26    1
    53    23    34    2
    54    24    31    1
    55    24    57    1
    56    24    58    1
    57    25    34    1
    58    25    59    1
    59    25    60    1
    60    26    28    1
    61    26    37    1
    62    26    61    1
    63    27    33    1
    64    27    62    1
    65    27    63    1
    66    28    33    1
    67    28    39    1
    68    28    43    1
    69    29    31    1
    70    29    64    1
    71    30    65    1
    72    30    66    1
    73    30    67    1
    74    31    68    1
    75    32    69    1
    76    32    70    1
    77    32    71    1
    78    33    72    1
    79    33    73    1
    80    34    74    1
    81    35    75    1
    82    35    76    1
    83    35    77    1
    84    36    42    1
    85    36    78    1
    86    36    79    1
    87    37    40    1
    88    37    80    1
    89    38    81    1
    90    38    82    1
    91    39    41    1
    92    39    83    1
    93    39    84    1
    94    40    41    1
    95    40    44    1
    96    40    45    1
    97    41    85    1
    98    41    86    1
    99    42    46    1
   100    44    89    1
   101    44    90    1
   102    44    91    1
   103    45    92    1
   104    45    93    1
   105    45    94    1
   106    46    47    1
   107    46    95    1
   108    47    49    1
   109    48    49    1
   110    48    50    1
   111    48    99    1
   112    50   102    1
   113    50   103    1
