@<TRIPOS>MOLECULE
IMPHY009414
 27 28 0 0 0
SMALL
GASTEIGER

@<TRIPOS>ATOM
      1 O           5.5443   -1.1824    0.0000 O.3     1  UNL1       -0.3720
      2 C           4.5981    0.1224    0.0000 C.3     1  UNL1       -0.0062
      3 C           5.5443    0.4271    0.0000 C.3     1  UNL1       -0.0149
      4 C           4.5981   -0.8776    0.0000 C.3     1  UNL1        0.0802
      5 C           3.7320    0.6224    0.0000 C.3     1  UNL1       -0.0436
      6 C           6.1279   -0.3776    0.0000 C.3     1  UNL1        0.0513
      7 C           2.8660    0.1224    0.0000 C.3     1  UNL1       -0.0316
      8 C           3.7320   -1.3776    0.0000 C.2     1  UNL1       -0.0564
      9 C           2.8660   -0.8776    0.0000 C.2     1  UNL1       -0.0741
     10 C           5.8550    1.3776    0.0000 C.3     1  UNL1       -0.0600
     11 C           2.0000   -1.3776    0.0000 C.3     1  UNL1       -0.0437
     12 H           4.6880    0.9676    0.0000 H       1  UNL1        0.0332
     13 H           5.1068    0.8665    0.0000 H       1  UNL1        0.0324
     14 H           4.6880   -1.7228    0.0000 H       1  UNL1        0.0643
     15 H           4.1306    1.0973    0.0000 H       1  UNL1        0.0272
     16 H           3.3335    1.0973    0.0000 H       1  UNL1        0.0272
     17 H           6.5888   -0.7924    0.0000 H       1  UNL1        0.0563
     18 H           6.5888    0.0371    0.0000 H       1  UNL1        0.0563
     19 H           2.6540    0.7050    0.0000 H       1  UNL1        0.0310
     20 H           2.2554    0.0147    0.0000 H       1  UNL1        0.0310
     21 H           3.7320   -1.9976    0.0000 H       1  UNL1        0.0597
     22 H           6.4443    1.1850    0.0000 H       1  UNL1        0.0233
     23 H           6.0476    1.9670    0.0000 H       1  UNL1        0.0233
     24 H           5.2656    1.5702    0.0000 H       1  UNL1        0.0233
     25 H           1.6900   -0.8407    0.0000 H       1  UNL1        0.0274
     26 H           1.4631   -1.6876    0.0000 H       1  UNL1        0.0274
     27 H           2.3100   -1.9146    0.0000 H       1  UNL1        0.0274
@<TRIPOS>BOND
     1     1     4    1
     2     1     6    1
     3     2     3    1
     4     2     4    1
     5     2     5    1
     6     2    12    1
     7     3     6    1
     8     3    10    1
     9     3    13    1
    10     4     8    1
    11     4    14    1
    12     5     7    1
    13     5    15    1
    14     5    16    1
    15     6    17    1
    16     6    18    1
    17     7     9    1
    18     7    19    1
    19     7    20    1
    20     8     9    2
    21     8    21    1
    22     9    11    1
    23    10    22    1
    24    10    23    1
    25    10    24    1
    26    11    25    1
    27    11    26    1
    28    11    27    1
