@<TRIPOS>MOLECULE
IMPHY003388
 56 61 0 0 0
SMALL
GASTEIGER

@<TRIPOS>ATOM
      1 O           8.1839   -0.8318    0.0000 O.3     1  UNL1       -0.5054
      2 O           6.4144   -4.9524    0.0000 O.3     1  UNL1       -0.5060
      3 O           4.6660   -0.9179    0.0000 O.2     1  UNL1       -0.2866
      4 O           4.6660   -4.9179    0.0000 O.2     1  UNL1       -0.2864
      5 O           9.0163    0.7061    0.0000 O.2     1  UNL1       -0.2864
      6 O           5.5369    2.6793    0.0000 O.2     1  UNL1       -0.2866
      7 O           9.9089    2.2099    0.0000 O.3     1  UNL1       -0.5060
      8 O           2.9176   -4.9524    0.0000 O.3     1  UNL1       -0.5060
      9 C           6.4260   -1.8832    0.0000 C.ar    1  UNL1        0.0003
     10 C           5.5321   -2.4179    0.0000 C.ar    1  UNL1        0.0447
     11 C           6.4144   -0.8833    0.0000 C.ar    1  UNL1        0.0253
     12 C           5.5321   -3.4179    0.0000 C.ar    1  UNL1        0.0751
     13 C           7.2843    0.6928    0.0000 C.ar    1  UNL1        0.0751
     14 C           7.3321   -2.3970    0.0000 C.ar    1  UNL1       -0.0385
     15 C           6.4144    1.1861    0.0000 C.ar    1  UNL1        0.0366
     16 C           7.3084   -0.3486    0.0000 C.ar    1  UNL1        0.1360
     17 C           4.6660   -1.9179    0.0000 C.2     1  UNL1        0.1953
     18 C           3.8000   -2.4179    0.0000 C.ar    1  UNL1        0.0366
     19 C           3.8000   -3.4179    0.0000 C.ar    1  UNL1        0.0745
     20 C           8.1387    2.1994    0.0000 C.ar    1  UNL1        0.0745
     21 C           5.5084   -0.3694    0.0000 C.ar    1  UNL1       -0.0498
     22 C           7.2689    2.6927    0.0000 C.ar    1  UNL1        0.0368
     23 C           6.4260   -3.9525    0.0000 C.ar    1  UNL1        0.1286
     24 C           4.6660   -3.9179    0.0000 C.2     1  UNL1        0.2015
     25 C           8.1464    1.1994    0.0000 C.2     1  UNL1        0.2015
     26 C           7.3321   -3.4387    0.0000 C.ar    1  UNL1       -0.0159
     27 C           5.5084    0.6722    0.0000 C.ar    1  UNL1       -0.0494
     28 C           6.4067    2.1860    0.0000 C.2     1  UNL1        0.1947
     29 C           8.1962   -1.8937    0.0000 C.3     1  UNL1       -0.0390
     30 C           7.2448    3.7340    0.0000 C.ar    1  UNL1       -0.0471
     31 C           9.0448    2.7132    0.0000 C.ar    1  UNL1        0.1286
     32 C           2.9061   -3.9525    0.0000 C.ar    1  UNL1        0.1283
     33 C           2.9061   -1.8832    0.0000 C.ar    1  UNL1       -0.0500
     34 C           8.1387    4.2687    0.0000 C.ar    1  UNL1       -0.0463
     35 C           9.0448    3.7549    0.0000 C.ar    1  UNL1       -0.0165
     36 C           2.0000   -3.4387    0.0000 C.ar    1  UNL1       -0.0194
     37 C           2.0000   -2.3970    0.0000 C.ar    1  UNL1       -0.0576
     38 C           8.1272    5.2686    0.0000 C.3     1  UNL1       -0.0396
     39 H           4.9726   -0.6815    0.0000 H       1  UNL1        0.0625
     40 H           7.8678   -3.7507    0.0000 H       1  UNL1        0.0657
     41 H           4.9726    0.9843    0.0000 H       1  UNL1        0.0625
     42 H           8.5082   -2.4294    0.0000 H       1  UNL1        0.0278
     43 H           8.7319   -1.5816    0.0000 H       1  UNL1        0.0278
     44 H           7.8841   -1.3580    0.0000 H       1  UNL1        0.0278
     45 H           6.7020    4.0336    0.0000 H       1  UNL1        0.0627
     46 H           2.9132   -1.2632    0.0000 H       1  UNL1        0.0625
     47 H           9.5805    4.0669    0.0000 H       1  UNL1        0.0657
     48 H           1.4643   -3.7507    0.0000 H       1  UNL1        0.0654
     49 H           1.4643   -2.0850    0.0000 H       1  UNL1        0.0619
     50 H           8.7147   -0.5115    0.0000 H       1  UNL1        0.2922
     51 H           6.9478   -5.2686    0.0000 H       1  UNL1        0.2922
     52 H           8.7471    5.2758    0.0000 H       1  UNL1        0.0278
     53 H           8.1200    5.8886    0.0000 H       1  UNL1        0.0278
     54 H           7.5072    5.2615    0.0000 H       1  UNL1        0.0278
     55 H          10.4470    2.5178    0.0000 H       1  UNL1        0.2922
     56 H           2.3843   -5.2686    0.0000 H       1  UNL1        0.2922
@<TRIPOS>BOND
     1     1    16    1
     2     1    50    1
     3     2    23    1
     4     2    51    1
     5     3    17    2
     6     4    24    2
     7     5    25    2
     8     6    28    2
     9     7    31    1
    10     7    55    1
    11     8    32    1
    12     8    56    1
    13     9    10   ar
    14     9    11    1
    15     9    14   ar
    16    10    12   ar
    17    10    17    1
    18    11    16   ar
    19    11    21   ar
    20    12    23   ar
    21    12    24    1
    22    13    15   ar
    23    13    16   ar
    24    13    25    1
    25    14    26   ar
    26    14    29    1
    27    15    27   ar
    28    15    28    1
    29    17    18    1
    30    18    19   ar
    31    18    33   ar
    32    19    24    1
    33    19    32   ar
    34    20    22   ar
    35    20    25    1
    36    20    31   ar
    37    21    27   ar
    38    21    39    1
    39    22    28    1
    40    22    30   ar
    41    23    26   ar
    42    26    40    1
    43    27    41    1
    44    29    42    1
    45    29    43    1
    46    29    44    1
    47    30    34   ar
    48    30    45    1
    49    31    35   ar
    50    32    36   ar
    51    33    37   ar
    52    33    46    1
    53    34    35   ar
    54    34    38    1
    55    35    47    1
    56    36    37   ar
    57    36    48    1
    58    37    49    1
    59    38    52    1
    60    38    53    1
    61    38    54    1
