@<TRIPOS>MOLECULE
IMPHY014636
 40 42 0 0 0
SMALL
GASTEIGER

@<TRIPOS>ATOM
      1 O           5.7619    1.1625    0.0000 O.3     1  UNL1       -0.3797
      2 O           4.6783   -0.5083    0.0000 O.3     1  UNL1       -0.4852
      3 O           5.3958   -1.2035    0.0000 O.3     1  UNL1       -0.3886
      4 O           7.1279    1.7965    0.0000 O.3     1  UNL1       -0.3886
      5 O           8.4939   -1.5695    0.0000 O.3     1  UNL1       -0.3772
      6 O           9.4939    0.1625    0.0000 O.3     1  UNL1       -0.4786
      7 O           9.4939   -1.5695    0.0000 O.2     1  UNL1       -0.2478
      8 C           6.2619    0.2965    0.0000 C.3     1  UNL1        0.1542
      9 C           6.2619   -0.7035    0.0000 C.3     1  UNL1        0.0930
     10 C           7.1279    0.7965    0.0000 C.3     1  UNL1        0.0930
     11 C           5.2619    0.2965    0.0000 C.3     1  UNL1        0.1376
     12 C           7.9939   -0.7035    0.0000 C.3     1  UNL1        0.1667
     13 C           7.1279   -1.2035    0.0000 C.3     1  UNL1        0.0156
     14 C           7.9939    0.2965    0.0000 C.3     1  UNL1        0.0156
     15 C           4.6783    1.1012    0.0000 C.3     1  UNL1        0.0159
     16 C           3.7320    0.7965    0.0000 C.ar    1  UNL1       -0.0021
     17 C           8.9939   -0.7035    0.0000 C.2     1  UNL1        0.3369
     18 C           3.7320   -0.2035    0.0000 C.ar    1  UNL1        0.1243
     19 C           2.8660    1.2965    0.0000 C.ar    1  UNL1       -0.0550
     20 C           2.8660   -0.7035    0.0000 C.ar    1  UNL1       -0.0197
     21 C           2.0000    0.7965    0.0000 C.ar    1  UNL1       -0.0613
     22 C           2.0000   -0.2035    0.0000 C.ar    1  UNL1       -0.0583
     23 H           5.7249   -0.3935    0.0000 H       1  UNL1        0.0625
     24 H           7.6648    1.1065    0.0000 H       1  UNL1        0.0625
     25 H           5.5436   -0.2558    0.0000 H       1  UNL1        0.0767
     26 H           6.7294   -1.6785    0.0000 H       1  UNL1        0.0324
     27 H           7.5264   -1.6785    0.0000 H       1  UNL1        0.0324
     28 H           8.6045    0.1888    0.0000 H       1  UNL1        0.0324
     29 H           8.2060    0.8791    0.0000 H       1  UNL1        0.0324
     30 H           5.2156    1.4104    0.0000 H       1  UNL1        0.0351
     31 H           4.4272    1.6681    0.0000 H       1  UNL1        0.0351
     32 H           6.0719    1.6994    0.0000 H       1  UNL1        0.2105
     33 H           5.3958   -1.8235    0.0000 H       1  UNL1        0.2099
     34 H           7.6648    2.1065    0.0000 H       1  UNL1        0.2099
     35 H           8.1839   -2.1065    0.0000 H       1  UNL1        0.2109
     36 H           2.8660    1.9165    0.0000 H       1  UNL1        0.0621
     37 H           2.8660   -1.3235    0.0000 H       1  UNL1        0.0654
     38 H          10.1139    0.1625    0.0000 H       1  UNL1        0.2951
     39 H           1.4631    1.1065    0.0000 H       1  UNL1        0.0618
     40 H           1.4631   -0.5135    0.0000 H       1  UNL1        0.0619
@<TRIPOS>BOND
     1     1     8    1
     2     1    32    1
     3     2    11    1
     4     2    18    1
     5     9     3    1
     6     3    33    1
     7    10     4    1
     8     4    34    1
     9     5    12    1
    10     5    35    1
    11     6    17    1
    12     6    38    1
    13     7    17    2
    14     8     9    1
    15     8    10    1
    16     8    11    1
    17     9    13    1
    18     9    23    1
    19    10    14    1
    20    10    24    1
    21    11    15    1
    22    11    25    1
    23    12    13    1
    24    12    14    1
    25    12    17    1
    26    13    26    1
    27    13    27    1
    28    14    28    1
    29    14    29    1
    30    15    16    1
    31    15    30    1
    32    15    31    1
    33    16    18   ar
    34    16    19   ar
    35    18    20   ar
    36    19    21   ar
    37    19    36    1
    38    20    22   ar
    39    20    37    1
    40    21    22   ar
    41    21    39    1
    42    22    40    1
