@<TRIPOS>MOLECULE
IMPHY013407
 68 72 0 0 0
SMALL
GASTEIGER

@<TRIPOS>ATOM
      1 O           5.1350   -1.0000    0.0000 O.3     1  UNL1       -0.3609
      2 O           2.5369   -0.5000    0.0000 O.3     1  UNL1       -0.3862
      3 O           2.5369   -2.5000    0.0000 O.3     1  UNL1       -0.3865
      4 O           4.2690   -3.5000    0.0000 O.3     1  UNL1       -0.3865
      5 O           6.0290    0.4653    0.0000 O.2     1  UNL1       -0.4540
      6 O          11.2632    0.4625    0.0000 O.3     1  UNL1       -0.3369
      7 O           6.0010   -3.5000    0.0000 O.3     1  UNL1       -0.3924
      8 O          10.3914   -1.0341    0.0000 O.3     1  UNL1       -0.4608
      9 O           2.5369    0.5000    0.0000 O.3     1  UNL1       -0.5062
     10 O          13.8555   -1.0475    0.0000 O.3     1  UNL1       -0.3864
     11 O          12.1196   -2.0408    0.0000 O.3     1  UNL1       -0.3829
     12 O          13.8632    0.9525    0.0000 O.3     1  UNL1       -0.3869
     13 O           4.2690    3.5000    0.0000 O.3     1  UNL1       -0.5058
     14 O           6.0174    3.5346    0.0000 O.2     1  UNL1       -0.2869
     15 C           3.4030   -1.0000    0.0000 C.3     1  UNL1        0.1139
     16 C           3.4030   -2.0000    0.0000 C.3     1  UNL1        0.1121
     17 C           4.2690   -0.5000    0.0000 C.3     1  UNL1        0.1193
     18 C           4.2690   -2.5000    0.0000 C.3     1  UNL1        0.1117
     19 C           5.1350   -2.0000    0.0000 C.3     1  UNL1        0.1108
     20 C           4.2690    0.5000    0.0000 C.ar    1  UNL1        0.0682
     21 C           6.0010   -2.5000    0.0000 C.3     1  UNL1        0.0729
     22 C           5.1350    1.0000    0.0000 C.ar    1  UNL1        0.1520
     23 C           3.4030    1.0000    0.0000 C.ar    1  UNL1        0.1296
     24 C          12.9914   -0.5442    0.0000 C.3     1  UNL1        0.1148
     25 C          12.1234   -1.0408    0.0000 C.3     1  UNL1        0.1454
     26 C          12.9952    0.4558    0.0000 C.3     1  UNL1        0.1070
     27 C          11.2593   -0.5375    0.0000 C.3     1  UNL1        0.2305
     28 C           5.1350    2.0000    0.0000 C.ar    1  UNL1        0.1058
     29 C          12.1311    0.9592    0.0000 C.3     1  UNL1        0.0802
     30 C           3.4030    2.0000    0.0000 C.ar    1  UNL1        0.0226
     31 C           4.2690    2.5000    0.0000 C.ar    1  UNL1        0.1347
     32 C           6.0290    2.5347    0.0000 C.ar    1  UNL1        0.1966
     33 C           6.9350    0.9792    0.0000 C.ar    1  UNL1        0.1392
     34 C           6.9350    2.0208    0.0000 C.ar    1  UNL1        0.0288
     35 C           7.7991    0.4758    0.0000 C.ar    1  UNL1        0.0176
     36 C           9.5273   -0.5308    0.0000 C.ar    1  UNL1        0.1240
     37 C           8.6671    0.9725    0.0000 C.ar    1  UNL1       -0.0476
     38 C           7.7953   -0.5241    0.0000 C.ar    1  UNL1       -0.0476
     39 C           9.5312    0.4692    0.0000 C.ar    1  UNL1       -0.0192
     40 C           8.6594   -1.0275    0.0000 C.ar    1  UNL1       -0.0192
     41 H           3.4030   -0.3800    0.0000 H       1  UNL1        0.0649
     42 H           3.4030   -2.6200    0.0000 H       1  UNL1        0.0647
     43 H           5.0051   -0.0750    0.0000 H       1  UNL1        0.0676
     44 H           4.8059   -2.8100    0.0000 H       1  UNL1        0.0647
     45 H           5.6720   -1.6900    0.0000 H       1  UNL1        0.0646
     46 H           6.6116   -2.6077    0.0000 H       1  UNL1        0.0584
     47 H           6.2131   -1.9174    0.0000 H       1  UNL1        0.0584
     48 H           2.0000   -0.8100    0.0000 H       1  UNL1        0.2100
     49 H           2.5369   -3.1200    0.0000 H       1  UNL1        0.2100
     50 H           3.7320   -3.8100    0.0000 H       1  UNL1        0.2100
     51 H          13.5295   -0.2362    0.0000 H       1  UNL1        0.0648
     52 H          12.6592   -1.3529    0.0000 H       1  UNL1        0.0683
     53 H          12.9976    1.0758    0.0000 H       1  UNL1        0.0643
     54 H          10.7236   -0.2254    0.0000 H       1  UNL1        0.1084
     55 H          12.5315    1.4326    0.0000 H       1  UNL1        0.0588
     56 H          11.7344    1.4356    0.0000 H       1  UNL1        0.0588
     57 H           2.8660    2.3100    0.0000 H       1  UNL1        0.0691
     58 H           6.5380   -3.8100    0.0000 H       1  UNL1        0.2095
     59 H           7.4708    2.3329    0.0000 H       1  UNL1        0.0693
     60 H          14.3936   -0.7396    0.0000 H       1  UNL1        0.2100
     61 H           2.0000    0.8100    0.0000 H       1  UNL1        0.2922
     62 H          12.6553   -2.3529    0.0000 H       1  UNL1        0.2102
     63 H          13.8656    1.5725    0.0000 H       1  UNL1        0.2100
     64 H           8.6694    1.5925    0.0000 H       1  UNL1        0.0626
     65 H           7.2571   -0.8321    0.0000 H       1  UNL1        0.0626
     66 H          10.0693    0.7771    0.0000 H       1  UNL1        0.0654
     67 H           8.6570   -1.6475    0.0000 H       1  UNL1        0.0654
     68 H           3.7320    3.8100    0.0000 H       1  UNL1        0.2922
@<TRIPOS>BOND
     1     1    17    1
     2     1    19    1
     3     2    15    1
     4     2    48    1
     5    16     3    1
     6     3    49    1
     7    18     4    1
     8     4    50    1
     9     5    22   ar
    10     5    33   ar
    11     6    27    1
    12     6    29    1
    13     7    21    1
    14     7    58    1
    15    27     8    1
    16     8    36    1
    17     9    23    1
    18     9    61    1
    19    10    24    1
    20    10    60    1
    21    11    25    1
    22    11    62    1
    23    26    12    1
    24    12    63    1
    25    13    31    1
    26    13    68    1
    27    14    32    2
    28    15    16    1
    29    15    17    1
    30    15    41    1
    31    16    18    1
    32    16    42    1
    33    17    20    1
    34    17    43    1
    35    18    19    1
    36    18    44    1
    37    19    21    1
    38    19    45    1
    39    20    22   ar
    40    20    23   ar
    41    21    46    1
    42    21    47    1
    43    22    28   ar
    44    23    30   ar
    45    24    25    1
    46    24    26    1
    47    24    51    1
    48    25    27    1
    49    25    52    1
    50    26    29    1
    51    26    53    1
    52    27    54    1
    53    28    31   ar
    54    28    32   ar
    55    29    55    1
    56    29    56    1
    57    30    31   ar
    58    30    57    1
    59    32    34   ar
    60    33    34   ar
    61    33    35    1
    62    34    59    1
    63    35    37   ar
    64    35    38   ar
    65    36    39   ar
    66    36    40   ar
    67    37    39   ar
    68    37    64    1
    69    38    40   ar
    70    38    65    1
    71    39    66    1
    72    40    67    1
