@<TRIPOS>MOLECULE
IMPHY012537
 52 54 0 0 0
SMALL
GASTEIGER

@<TRIPOS>ATOM
      1 O           6.3624   -2.1249    0.0000 O.3     1  UNL1       -0.4819
      2 O           4.5923   -0.0661    0.0000 O.3     1  UNL1       -0.4532
      3 O           6.3740    0.9443    0.0000 O.3     1  UNL1       -0.4526
      4 O           8.1063    0.9513    0.0000 O.2     1  UNL1       -0.4216
      5 O           3.7205   -1.5628    0.0000 O.2     1  UNL1       -0.2508
      6 O           4.6421    0.9644    0.0000 O.2     1  UNL1       -0.2511
      7 O           9.0005    2.4790    0.0000 O.2     1  UNL1       -0.2452
      8 C           5.4564   -1.6111    0.0000 C.3     1  UNL1        0.1455
      9 C           5.4564   -0.5694    0.0000 C.3     1  UNL1        0.1828
     10 C           6.3624   -0.0556    0.0000 C.3     1  UNL1        0.1752
     11 C           7.2564   -0.5902    0.0000 C.ar    1  UNL1        0.0810
     12 C           7.2564   -1.5902    0.0000 C.ar    1  UNL1        0.1318
     13 C           4.9597   -2.4790    0.0000 C.3     1  UNL1       -0.0215
     14 C           4.4564   -1.6149    0.0000 C.3     1  UNL1       -0.0215
     15 C           8.1224   -0.0902    0.0000 C.ar    1  UNL1        0.1494
     16 C           8.1224   -2.0902    0.0000 C.ar    1  UNL1       -0.0187
     17 C           8.9884   -0.5902    0.0000 C.ar    1  UNL1        0.0182
     18 C           3.7243   -0.5628    0.0000 C.2     1  UNL1        0.3078
     19 C           8.9884   -1.5902    0.0000 C.ar    1  UNL1       -0.0476
     20 C           2.8602   -0.0594    0.0000 C.3     1  UNL1        0.0473
     21 C           2.8641    0.9406    0.0000 C.3     1  UNL1       -0.0367
     22 C           5.5138    1.4543    0.0000 C.2     1  UNL1        0.3046
     23 C           9.8984   -0.0834    0.0000 C.ar    1  UNL1       -0.0443
     24 C           9.0044    1.4790    0.0000 C.ar    1  UNL1        0.3372
     25 C           2.0000    1.4439    0.0000 C.3     1  UNL1       -0.0622
     26 C           3.7320    1.4372    0.0000 C.3     1  UNL1       -0.0622
     27 C           9.9065    0.9582    0.0000 C.ar    1  UNL1        0.0236
     28 C           5.5254    2.4543    0.0000 C.3     1  UNL1        0.0333
     29 H           5.4600    0.0506    0.0000 H       1  UNL1        0.0816
     30 H           5.8285    0.2596    0.0000 H       1  UNL1        0.0827
     31 H           4.4216   -2.1711    0.0000 H       1  UNL1        0.0269
     32 H           4.6518   -3.0171    0.0000 H       1  UNL1        0.0269
     33 H           5.4978   -2.7869    0.0000 H       1  UNL1        0.0269
     34 H           4.4540   -0.9949    0.0000 H       1  UNL1        0.0269
     35 H           3.8364   -1.6173    0.0000 H       1  UNL1        0.0269
     36 H           4.4588   -2.2349    0.0000 H       1  UNL1        0.0269
     37 H           8.1224   -2.7102    0.0000 H       1  UNL1        0.0654
     38 H           9.5254   -1.9002    0.0000 H       1  UNL1        0.0626
     39 H           2.2501    0.0506    0.0000 H       1  UNL1        0.0380
     40 H           2.6459   -0.6412    0.0000 H       1  UNL1        0.0380
     41 H           2.3260    0.6326    0.0000 H       1  UNL1        0.0301
     42 H          10.4317   -0.3996    0.0000 H       1  UNL1        0.0627
     43 H           2.3121    1.9796    0.0000 H       1  UNL1        0.0232
     44 H           1.4643    1.7560    0.0000 H       1  UNL1        0.0232
     45 H           1.6879    0.9082    0.0000 H       1  UNL1        0.0232
     46 H           4.0400    0.8991    0.0000 H       1  UNL1        0.0232
     47 H           4.2702    1.7452    0.0000 H       1  UNL1        0.0232
     48 H           3.4241    1.9754    0.0000 H       1  UNL1        0.0232
     49 H          10.4446    1.2661    0.0000 H       1  UNL1        0.0689
     50 H           6.1453    2.4471    0.0000 H       1  UNL1        0.0342
     51 H           5.5325    3.0742    0.0000 H       1  UNL1        0.0342
     52 H           4.9054    2.4614    0.0000 H       1  UNL1        0.0342
@<TRIPOS>BOND
     1     1     8    1
     2     1    12    1
     3     9     2    1
     4     2    18    1
     5    10     3    1
     6     3    22    1
     7     4    15   ar
     8     4    24   ar
     9     5    18    2
    10     6    22    2
    11     7    24    2
    12     8     9    1
    13     8    13    1
    14     8    14    1
    15     9    10    1
    16     9    29    1
    17    10    11    1
    18    10    30    1
    19    11    12   ar
    20    11    15   ar
    21    12    16   ar
    22    13    31    1
    23    13    32    1
    24    13    33    1
    25    14    34    1
    26    14    35    1
    27    14    36    1
    28    15    17   ar
    29    16    19   ar
    30    16    37    1
    31    17    19   ar
    32    17    23   ar
    33    18    20    1
    34    19    38    1
    35    20    21    1
    36    20    39    1
    37    20    40    1
    38    21    25    1
    39    21    26    1
    40    21    41    1
    41    22    28    1
    42    23    27   ar
    43    23    42    1
    44    24    27   ar
    45    25    43    1
    46    25    44    1
    47    25    45    1
    48    26    46    1
    49    26    47    1
    50    26    48    1
    51    27    49    1
    52    28    50    1
    53    28    51    1
    54    28    52    1
