@<TRIPOS>MOLECULE
IMPHY000401
 79 83 0 0 0
SMALL
GASTEIGER

@<TRIPOS>ATOM
      1 O           7.2641   -0.2500    0.0000 O.3     1  UNL1       -0.3313
      2 O           6.3981   -2.7500    0.0000 O.3     1  UNL1       -0.3461
      3 O           4.6660   -2.7500    0.0000 O.3     1  UNL1       -0.3431
      4 O           8.1301   -2.7500    0.0000 O.3     1  UNL1       -0.3865
      5 O           9.8622   -1.7500    0.0000 O.3     1  UNL1       -0.3864
      6 O           8.1301    1.2500    0.0000 O.3     1  UNL1       -0.4532
      7 O           9.8622    0.2500    0.0000 O.3     1  UNL1       -0.3829
      8 O           6.3981   -4.7500    0.0000 O.3     1  UNL1       -0.3841
      9 O           4.6660   -5.7500    0.0000 O.3     1  UNL1       -0.3864
     10 O           2.9340   -4.7500    0.0000 O.3     1  UNL1       -0.3866
     11 O           6.3981    3.2500    0.0000 O.2     1  UNL1       -0.4507
     12 O           6.3981    0.2500    0.0000 O.2     1  UNL1       -0.2830
     13 O           4.6497    0.2154    0.0000 O.3     1  UNL1       -0.5058
     14 O           2.8680    3.2742    0.0000 O.3     1  UNL1       -0.4949
     15 O           8.9962    5.7500    0.0000 O.3     1  UNL1       -0.5033
     16 O          10.7282    4.7500    0.0000 O.3     1  UNL1       -0.4915
     17 C           7.2641   -1.2500    0.0000 C.3     1  UNL1        0.1144
     18 C           8.1301   -1.7500    0.0000 C.3     1  UNL1        0.1120
     19 C           8.9962   -1.2500    0.0000 C.3     1  UNL1        0.1152
     20 C           8.9962   -0.2500    0.0000 C.3     1  UNL1        0.1454
     21 C           5.5320   -4.2500    0.0000 C.3     1  UNL1        0.1341
     22 C           5.5320   -3.2500    0.0000 C.3     1  UNL1        0.1879
     23 C           4.6660   -4.7500    0.0000 C.3     1  UNL1        0.1140
     24 C           3.8000   -4.2500    0.0000 C.3     1  UNL1        0.1095
     25 C           8.1301    0.2500    0.0000 C.3     1  UNL1        0.2311
     26 C           6.3981   -1.7500    0.0000 C.3     1  UNL1        0.0796
     27 C           3.8000   -3.2500    0.0000 C.3     1  UNL1        0.0873
     28 C           2.9340   -2.7500    0.0000 C.3     1  UNL1       -0.0361
     29 C           7.2641    1.7500    0.0000 C.ar    1  UNL1        0.2138
     30 C           7.2641    2.7500    0.0000 C.ar    1  UNL1        0.1810
     31 C           6.3981    1.2500    0.0000 C.ar    1  UNL1        0.2382
     32 C           5.5320    1.7500    0.0000 C.ar    1  UNL1        0.1092
     33 C           8.1301    3.2500    0.0000 C.ar    1  UNL1        0.0247
     34 C           5.5320    2.7500    0.0000 C.ar    1  UNL1        0.1465
     35 C           4.6381    1.2153    0.0000 C.ar    1  UNL1        0.1348
     36 C           4.6381    3.2847    0.0000 C.ar    1  UNL1        0.0233
     37 C           8.1301    4.2500    0.0000 C.ar    1  UNL1       -0.0057
     38 C           8.9962    2.7500    0.0000 C.ar    1  UNL1       -0.0473
     39 C           3.7320    1.7292    0.0000 C.ar    1  UNL1        0.0225
     40 C           3.7320    2.7708    0.0000 C.ar    1  UNL1        0.1271
     41 C           8.9962    4.7500    0.0000 C.ar    1  UNL1        0.1591
     42 C           9.8622    3.2500    0.0000 C.ar    1  UNL1       -0.0156
     43 C           9.8622    4.2500    0.0000 C.ar    1  UNL1        0.1613
     44 C           2.0000    2.7775    0.0000 C.3     1  UNL1        0.0788
     45 C          10.7282    5.7500    0.0000 C.3     1  UNL1        0.0790
     46 H           6.7272   -0.9400    0.0000 H       1  UNL1        0.0647
     47 H           8.6671   -2.0600    0.0000 H       1  UNL1        0.0647
     48 H           9.5331   -0.9400    0.0000 H       1  UNL1        0.0648
     49 H           8.9962    0.3700    0.0000 H       1  UNL1        0.0683
     50 H           5.5320   -4.8700    0.0000 H       1  UNL1        0.0671
     51 H           5.5320   -2.6300    0.0000 H       1  UNL1        0.0937
     52 H           4.1291   -5.0600    0.0000 H       1  UNL1        0.0648
     53 H           3.2631   -3.9400    0.0000 H       1  UNL1        0.0646
     54 H           7.5932    0.5600    0.0000 H       1  UNL1        0.1084
     55 H           6.1860   -1.1674    0.0000 H       1  UNL1        0.0587
     56 H           5.7875   -1.8577    0.0000 H       1  UNL1        0.0587
     57 H           3.8000   -2.6300    0.0000 H       1  UNL1        0.0621
     58 H           3.2440   -2.2131    0.0000 H       1  UNL1        0.0255
     59 H           2.3970   -2.4400    0.0000 H       1  UNL1        0.0255
     60 H           2.6240   -3.2869    0.0000 H       1  UNL1        0.0255
     61 H           7.5932   -3.0600    0.0000 H       1  UNL1        0.2100
     62 H           9.8622   -2.3700    0.0000 H       1  UNL1        0.2100
     63 H          10.3991   -0.0600    0.0000 H       1  UNL1        0.2102
     64 H           6.9350   -4.4400    0.0000 H       1  UNL1        0.2101
     65 H           4.1291   -6.0600    0.0000 H       1  UNL1        0.2100
     66 H           2.3970   -4.4400    0.0000 H       1  UNL1        0.2100
     67 H           4.6453    3.9046    0.0000 H       1  UNL1        0.0691
     68 H           7.5932    4.5600    0.0000 H       1  UNL1        0.0662
     69 H           8.9962    2.1300    0.0000 H       1  UNL1        0.0626
     70 H           3.1963    1.4171    0.0000 H       1  UNL1        0.0691
     71 H          10.3991    2.9400    0.0000 H       1  UNL1        0.0655
     72 H           4.1164   -0.1008    0.0000 H       1  UNL1        0.2922
     73 H           8.4592    6.0600    0.0000 H       1  UNL1        0.2923
     74 H           1.6921    3.3156    0.0000 H       1  UNL1        0.0660
     75 H           1.4619    2.4696    0.0000 H       1  UNL1        0.0660
     76 H           2.3079    2.2394    0.0000 H       1  UNL1        0.0660
     77 H          11.3482    5.7500    0.0000 H       1  UNL1        0.0660
     78 H          10.7282    6.3700    0.0000 H       1  UNL1        0.0660
     79 H          10.1082    5.7500    0.0000 H       1  UNL1        0.0660
@<TRIPOS>BOND
     1     1    17    1
     2     1    25    1
     3    22     2    1
     4     2    26    1
     5     3    22    1
     6     3    27    1
     7    18     4    1
     8     4    61    1
     9    19     5    1
    10     5    62    1
    11    25     6    1
    12     6    29    1
    13    20     7    1
    14     7    63    1
    15    21     8    1
    16     8    64    1
    17    23     9    1
    18     9    65    1
    19    24    10    1
    20    10    66    1
    21    11    30   ar
    22    11    34   ar
    23    12    31    2
    24    13    35    1
    25    13    72    1
    26    14    40    1
    27    14    44    1
    28    15    41    1
    29    15    73    1
    30    16    43    1
    31    16    45    1
    32    17    18    1
    33    17    26    1
    34    17    46    1
    35    18    19    1
    36    18    47    1
    37    19    20    1
    38    19    48    1
    39    20    25    1
    40    20    49    1
    41    21    22    1
    42    21    23    1
    43    21    50    1
    44    22    51    1
    45    23    24    1
    46    23    52    1
    47    24    27    1
    48    24    53    1
    49    25    54    1
    50    26    55    1
    51    26    56    1
    52    27    28    1
    53    27    57    1
    54    28    58    1
    55    28    59    1
    56    28    60    1
    57    29    30   ar
    58    29    31   ar
    59    30    33    1
    60    31    32   ar
    61    32    34   ar
    62    32    35   ar
    63    33    37   ar
    64    33    38   ar
    65    34    36   ar
    66    35    39   ar
    67    36    40   ar
    68    36    67    1
    69    37    41   ar
    70    37    68    1
    71    38    42   ar
    72    38    69    1
    73    39    40   ar
    74    39    70    1
    75    41    43   ar
    76    42    43   ar
    77    42    71    1
    78    44    74    1
    79    44    75    1
    80    44    76    1
    81    45    77    1
    82    45    78    1
    83    45    79    1
