@<TRIPOS>MOLECULE
IMPHY016235
 40 40 0 0 0
SMALL
GASTEIGER

@<TRIPOS>ATOM
      1 O           2.8660    0.5001    0.0000 O.2     1  UNL1       -0.2977
      2 C           8.0622    0.5000    0.0000 C.3     1  UNL1        0.0282
      3 C           7.1962   -0.0000    0.0000 C.2     1  UNL1       -0.0531
      4 C           6.3302   -0.5000    0.0000 C.3     1  UNL1       -0.0127
      5 C           7.1962    1.0000    0.0000 C.2     1  UNL1       -0.0693
      6 C           5.4641   -1.0000    0.0000 C.3     1  UNL1       -0.0438
      7 C           8.5622    1.3660    0.0000 C.3     1  UNL1       -0.0486
      8 C           8.9282    0.0000    0.0000 C.2     1  UNL1       -0.0661
      9 C           5.8302    0.3661    0.0000 C.3     1  UNL1       -0.0561
     10 C           6.8301   -1.3660    0.0000 C.3     1  UNL1       -0.0561
     11 C           4.5981   -0.5000    0.0000 C.3     1  UNL1       -0.0456
     12 C           9.7942    0.5000    0.0000 C.3     1  UNL1       -0.0429
     13 C           3.7320   -1.0000    0.0000 C.3     1  UNL1        0.0056
     14 C           8.9283   -1.0000    0.0000 C.2     1  UNL1       -0.0986
     15 C           2.8660   -0.5000    0.0000 C.2     1  UNL1        0.1303
     16 C           2.0000   -1.0000    0.0000 C.3     1  UNL1       -0.0061
     17 H           6.8862    1.5369    0.0000 H       1  UNL1        0.0584
     18 H           5.0656   -1.4750    0.0000 H       1  UNL1        0.0274
     19 H           5.8626   -1.4750    0.0000 H       1  UNL1        0.0274
     20 H           9.0991    1.0560    0.0000 H       1  UNL1        0.0244
     21 H           8.8722    1.9030    0.0000 H       1  UNL1        0.0244
     22 H           8.0252    1.6760    0.0000 H       1  UNL1        0.0244
     23 H           6.3671    0.6761    0.0000 H       1  UNL1        0.0238
     24 H           5.5202    0.9030    0.0000 H       1  UNL1        0.0238
     25 H           5.2932    0.0561    0.0000 H       1  UNL1        0.0238
     26 H           6.2932   -1.6760    0.0000 H       1  UNL1        0.0238
     27 H           7.1401   -1.9030    0.0000 H       1  UNL1        0.0238
     28 H           7.3671   -1.0560    0.0000 H       1  UNL1        0.0238
     29 H           4.9966   -0.0250    0.0000 H       1  UNL1        0.0270
     30 H           4.1996   -0.0250    0.0000 H       1  UNL1        0.0270
     31 H          10.1042   -0.0369    0.0000 H       1  UNL1        0.0275
     32 H          10.3312    0.8100    0.0000 H       1  UNL1        0.0275
     33 H           9.4842    1.0369    0.0000 H       1  UNL1        0.0275
     34 H           3.3335   -1.4750    0.0000 H       1  UNL1        0.0341
     35 H           4.1306   -1.4750    0.0000 H       1  UNL1        0.0341
     36 H           8.3914   -1.3100    0.0000 H       1  UNL1        0.0535
     37 H           9.4652   -1.3099    0.0000 H       1  UNL1        0.0535
     38 H           1.6900   -0.4631    0.0000 H       1  UNL1        0.0306
     39 H           1.4631   -1.3100    0.0000 H       1  UNL1        0.0306
     40 H           2.3100   -1.5369    0.0000 H       1  UNL1        0.0306
@<TRIPOS>BOND
     1     1    15    2
     2     2     3    1
     3     2     5    1
     4     2     7    1
     5     2     8    1
     6     3     4    1
     7     3     5    2
     8     4     6    1
     9     4     9    1
    10     4    10    1
    11     5    17    1
    12     6    11    1
    13     6    18    1
    14     6    19    1
    15     7    20    1
    16     7    21    1
    17     7    22    1
    18     8    12    1
    19     8    14    2
    20     9    23    1
    21     9    24    1
    22     9    25    1
    23    10    26    1
    24    10    27    1
    25    10    28    1
    26    11    13    1
    27    11    29    1
    28    11    30    1
    29    12    31    1
    30    12    32    1
    31    12    33    1
    32    13    15    1
    33    13    34    1
    34    13    35    1
    35    14    36    1
    36    14    37    1
    37    15    16    1
    38    16    38    1
    39    16    39    1
    40    16    40    1
