@<TRIPOS>MOLECULE
IMPHY006044
 55 57 0 0 0
SMALL
GASTEIGER

@<TRIPOS>ATOM
      1 O           8.1898    0.1076    0.0000 O.3     1  UNL1       -0.3872
      2 O           2.3038   -2.3072    0.0000 O.3     1  UNL1       -0.4802
      3 O           3.8137   -3.1558    0.0000 O.2     1  UNL1       -0.2504
      4 C           4.6876    0.1108    0.0000 C.3     1  UNL1       -0.0069
      5 C           4.6876   -0.8892    0.0000 C.3     1  UNL1       -0.0162
      6 C           3.7937   -1.4239    0.0000 C.3     1  UNL1        0.0684
      7 C           5.5536    0.6108    0.0000 C.2     1  UNL1       -0.0617
      8 C           3.7937    0.6454    0.0000 C.3     1  UNL1       -0.0436
      9 C           5.5536   -1.3893    0.0000 C.3     1  UNL1       -0.0446
     10 C           6.4196    0.1108    0.0000 C.2     1  UNL1       -0.0414
     11 C           2.8876   -0.9101    0.0000 C.3     1  UNL1       -0.0372
     12 C           2.8876    0.1316    0.0000 C.3     1  UNL1       -0.0513
     13 C           6.4196   -0.8892    0.0000 C.3     1  UNL1       -0.0287
     14 C           5.5376    1.6523    0.0000 C.3     1  UNL1       -0.0305
     15 C           4.6876    1.1107    0.0000 C.3     1  UNL1       -0.0555
     16 C           7.3296    0.6176    0.0000 C.3     1  UNL1        0.0796
     17 C           7.3377    1.6592    0.0000 C.3     1  UNL1       -0.0085
     18 C           6.4356    2.1800    0.0000 C.3     1  UNL1       -0.0436
     19 C           4.3036   -2.2841    0.0000 C.3     1  UNL1       -0.0491
     20 C           3.3037   -2.2957    0.0000 C.2     1  UNL1        0.3110
     21 C           8.2056    2.1558    0.0000 C.3     1  UNL1       -0.0412
     22 C           8.2095    3.1558    0.0000 C.3     1  UNL1       -0.0623
     23 C           9.0697    1.6525    0.0000 C.3     1  UNL1       -0.0623
     24 H           4.6941   -1.7392    0.0000 H       1  UNL1        0.0320
     25 H           4.1982    1.1152    0.0000 H       1  UNL1        0.0274
     26 H           3.4000    1.1244    0.0000 H       1  UNL1        0.0274
     27 H           5.1551   -1.8642    0.0000 H       1  UNL1        0.0272
     28 H           5.9521   -1.8642    0.0000 H       1  UNL1        0.0272
     29 H           2.2767   -0.8040    0.0000 H       1  UNL1        0.0276
     30 H           2.6785   -1.4938    0.0000 H       1  UNL1        0.0276
     31 H           2.6785    0.7153    0.0000 H       1  UNL1        0.0266
     32 H           2.2767    0.0255    0.0000 H       1  UNL1        0.0266
     33 H           6.6317   -1.4719    0.0000 H       1  UNL1        0.0311
     34 H           7.0302   -0.7816    0.0000 H       1  UNL1        0.0311
     35 H           5.3195    2.2327    0.0000 H       1  UNL1        0.0310
     36 H           4.9284    1.5368    0.0000 H       1  UNL1        0.0310
     37 H           5.3076    1.1107    0.0000 H       1  UNL1        0.0238
     38 H           4.6876    1.7308    0.0000 H       1  UNL1        0.0238
     39 H           4.0676    1.1107    0.0000 H       1  UNL1        0.0238
     40 H           7.8696    0.9224    0.0000 H       1  UNL1        0.0643
     41 H           7.3389    2.2792    0.0000 H       1  UNL1        0.0331
     42 H           6.8329    2.6560    0.0000 H       1  UNL1        0.0272
     43 H           6.0346    2.6529    0.0000 H       1  UNL1        0.0272
     44 H           3.7703   -2.6003    0.0000 H       1  UNL1        0.0240
     45 H           4.6198   -2.8174    0.0000 H       1  UNL1        0.0240
     46 H           4.8370   -1.9679    0.0000 H       1  UNL1        0.0240
     47 H           8.7438    2.4638    0.0000 H       1  UNL1        0.0299
     48 H           8.1827   -0.5123    0.0000 H       1  UNL1        0.2102
     49 H           8.8295    3.1535    0.0000 H       1  UNL1        0.0232
     50 H           8.2119    3.7758    0.0000 H       1  UNL1        0.0232
     51 H           7.5895    3.1582    0.0000 H       1  UNL1        0.0232
     52 H           8.7576    1.1168    0.0000 H       1  UNL1        0.0232
     53 H           9.6054    1.3404    0.0000 H       1  UNL1        0.0232
     54 H           9.3818    2.1883    0.0000 H       1  UNL1        0.0232
     55 H           2.0000   -2.8477    0.0000 H       1  UNL1        0.2951
@<TRIPOS>BOND
     1    16     1    1
     2     1    48    1
     3     2    20    1
     4     2    55    1
     5     3    20    2
     6     4     5    1
     7     4     7    1
     8     4     8    1
     9     4    15    1
    10     5     6    1
    11     5     9    1
    12     5    24    1
    13     6    11    1
    14     6    19    1
    15     6    20    1
    16     7    10    2
    17     7    14    1
    18     8    12    1
    19     8    25    1
    20     8    26    1
    21     9    13    1
    22     9    27    1
    23     9    28    1
    24    10    13    1
    25    10    16    1
    26    11    12    1
    27    11    29    1
    28    11    30    1
    29    12    31    1
    30    12    32    1
    31    13    33    1
    32    13    34    1
    33    14    18    1
    34    14    35    1
    35    14    36    1
    36    15    37    1
    37    15    38    1
    38    15    39    1
    39    16    17    1
    40    16    40    1
    41    17    18    1
    42    17    21    1
    43    17    41    1
    44    18    42    1
    45    18    43    1
    46    19    44    1
    47    19    45    1
    48    19    46    1
    49    21    22    1
    50    21    23    1
    51    21    47    1
    52    22    49    1
    53    22    50    1
    54    22    51    1
    55    23    52    1
    56    23    53    1
    57    23    54    1
