@<TRIPOS>MOLECULE
IMPHY015916
 68 70 0 0 0
SMALL
GASTEIGER

@<TRIPOS>ATOM
      1 O           4.2690   -0.5950    0.0000 O.3     1  UNL1       -0.4523
      2 O           4.2690    1.4050    0.0000 O.3     1  UNL1       -0.5029
      3 O           7.7331    2.4050    0.0000 O.3     1  UNL1       -0.5062
      4 O          10.3312   -0.0950    0.0000 O.3     1  UNL1       -0.4795
      5 O           3.4030    6.9050    0.0000 O.3     1  UNL1       -0.4795
      6 OXT         9.4651   -1.5950    0.0000 O.2     1  UNL1       -0.2492
      7 OXT         2.5369    5.4050    0.0000 O.2     1  UNL1       -0.2492
      8 O           2.5369   -6.5950    0.0000 O.3     1  UNL1       -0.4795
      9 OXT         4.2690   -6.5950    0.0000 O.2     1  UNL1       -0.2492
     10 N           8.5991    0.9050    0.0000 N.3     1  UNL1       -0.3181
     11 N           5.1350    5.9050    0.0000 N.3     1  UNL1       -0.3181
     12 N           2.5369   -4.5950    0.0000 N.3     1  UNL1       -0.3181
     13 C           6.0010    1.4050    0.0000 C.ar    1  UNL1        0.0310
     14 C           6.8671   -0.0950    0.0000 C.ar    1  UNL1       -0.0411
     15 C           7.7331   -0.5950    0.0000 C.3     1  UNL1       -0.0019
     16 C           6.0010    2.4050    0.0000 C.ar    1  UNL1        0.0274
     17 C           6.8671    0.9050    0.0000 C.ar    1  UNL1       -0.0469
     18 C           5.1350    3.9050    0.0000 C.ar    1  UNL1       -0.0446
     19 C           4.2690    4.4050    0.0000 C.3     1  UNL1       -0.0020
     20 C           5.1350    0.9050    0.0000 C.ar    1  UNL1        0.1671
     21 CA          8.5991   -0.0950    0.0000 C.3     1  UNL1        0.1072
     22 C           5.1350    2.9050    0.0000 C.ar    1  UNL1       -0.0472
     23 C           5.1350   -0.0950    0.0000 C.ar    1  UNL1        0.1705
     24 C           6.0010   -0.5950    0.0000 C.ar    1  UNL1       -0.0124
     25 CA          4.2690    5.4050    0.0000 C.3     1  UNL1        0.1072
     26 C           6.8671    2.9050    0.0000 C.ar    1  UNL1        0.1247
     27 C           6.0010    4.4050    0.0000 C.ar    1  UNL1       -0.0550
     28 C           6.8671    3.9050    0.0000 C.ar    1  UNL1       -0.0193
     29 C           4.2690   -4.5950    0.0000 C.3     1  UNL1       -0.0020
     30 C           4.2690   -3.5950    0.0000 C.ar    1  UNL1       -0.0451
     31 C           4.2690   -1.5950    0.0000 C.ar    1  UNL1        0.1286
     32 CA          3.4030   -5.0950    0.0000 C.3     1  UNL1        0.1072
     33 C           9.4651   -0.5950    0.0000 C.2     1  UNL1        0.3220
     34 C           3.4030   -3.0950    0.0000 C.ar    1  UNL1       -0.0550
     35 C           5.1350   -3.0950    0.0000 C.ar    1  UNL1       -0.0550
     36 C           3.4030   -2.0950    0.0000 C.ar    1  UNL1       -0.0191
     37 C           5.1350   -2.0950    0.0000 C.ar    1  UNL1       -0.0191
     38 C           3.4030    5.9050    0.0000 C.2     1  UNL1        0.3220
     39 C           3.4030   -6.0950    0.0000 C.2     1  UNL1        0.3220
     40 H           7.3346   -1.0700    0.0000 H       1  UNL1        0.0334
     41 H           8.1316   -1.0700    0.0000 H       1  UNL1        0.0334
     42 H           7.4040    1.2150    0.0000 H       1  UNL1        0.0628
     43 H           3.6584    4.5127    0.0000 H       1  UNL1        0.0334
     44 H           4.0569    3.8224    0.0000 H       1  UNL1        0.0334
     45 HA          8.0622    0.2150    0.0000 H       1  UNL1        0.0577
     46 H           4.5981    2.5950    0.0000 H       1  UNL1        0.0627
     47 H           6.0010   -1.2150    0.0000 H       1  UNL1        0.0658
     48 HA          4.2690    6.0250    0.0000 H       1  UNL1        0.0577
     49 H           6.0010    5.0250    0.0000 H       1  UNL1        0.0621
     50 H           7.4040    4.2150    0.0000 H       1  UNL1        0.0654
     51 H           4.4810   -5.1776    0.0000 H       1  UNL1        0.0334
     52 H           4.8796   -4.4873    0.0000 H       1  UNL1        0.0334
     53 HA          3.4030   -4.4750    0.0000 H       1  UNL1        0.0577
     54 H1          9.1360    1.2150    0.0000 H       1  UNL1        0.1190
     55 H2          8.0622    1.2150    0.0000 H       1  UNL1        0.1190
     56 H           2.8660   -3.4050    0.0000 H       1  UNL1        0.0621
     57 H           5.6720   -3.4050    0.0000 H       1  UNL1        0.0621
     58 H           2.8660   -1.7850    0.0000 H       1  UNL1        0.0654
     59 H           5.6720   -1.7850    0.0000 H       1  UNL1        0.0654
     60 H1          5.1350    6.5250    0.0000 H       1  UNL1        0.1190
     61 H2          5.6720    5.5950    0.0000 H       1  UNL1        0.1190
     62 H           3.7320    1.0950    0.0000 H       1  UNL1        0.2923
     63 H           8.2700    2.7150    0.0000 H       1  UNL1        0.2922
     64 H1          2.0000   -4.9050    0.0000 H       1  UNL1        0.1190
     65 H2          2.5369   -3.9750    0.0000 H       1  UNL1        0.1190
     66 H          10.8681   -0.4050    0.0000 H       1  UNL1        0.2951
     67 H           2.8660    7.2150    0.0000 H       1  UNL1        0.2951
     68 H           2.5369   -7.2150    0.0000 H       1  UNL1        0.2951
@<TRIPOS>BOND
     1     1    23    1
     2     1    31    1
     3     2    20    1
     4     2    62    1
     5     3    26    1
     6     3    63    1
     7     4    33    1
     8     4    66    1
     9     5    38    1
    10     5    67    1
    11     6    33    2
    12     7    38    2
    13     8    39    1
    14     8    68    1
    15     9    39    2
    16    10    21    1
    17    10    54    1
    18    10    55    1
    19    11    25    1
    20    11    60    1
    21    11    61    1
    22    12    32    1
    23    12    64    1
    24    12    65    1
    25    13    16    1
    26    13    17   ar
    27    13    20   ar
    28    14    15    1
    29    14    17   ar
    30    14    24   ar
    31    15    21    1
    32    15    40    1
    33    15    41    1
    34    16    22   ar
    35    16    26   ar
    36    17    42    1
    37    18    19    1
    38    18    22   ar
    39    18    27   ar
    40    19    25    1
    41    19    43    1
    42    19    44    1
    43    20    23   ar
    44    21    33    1
    45    21    45    1
    46    22    46    1
    47    23    24   ar
    48    24    47    1
    49    25    38    1
    50    25    48    1
    51    26    28   ar
    52    27    28   ar
    53    27    49    1
    54    28    50    1
    55    29    30    1
    56    29    32    1
    57    29    51    1
    58    29    52    1
    59    30    34   ar
    60    30    35   ar
    61    31    36   ar
    62    31    37   ar
    63    32    39    1
    64    32    53    1
    65    34    36   ar
    66    34    56    1
    67    35    37   ar
    68    35    57    1
    69    36    58    1
    70    37    59    1
