@<TRIPOS>MOLECULE
IMPHY016773
 44 44 0 0 0
SMALL
GASTEIGER

@<TRIPOS>ATOM
      1 O           2.8660   -0.7500    0.0000 O.3     1  UNL1       -0.4258
      2 O           4.5981   -0.7500    0.0000 O.2     1  UNL1       -0.2504
      3 C           6.3301    2.2500    0.0000 C.3     1  UNL1       -0.0286
      4 C           5.4641    2.7500    0.0000 C.2     1  UNL1       -0.0762
      5 C           7.1962    2.7500    0.0000 C.3     1  UNL1       -0.0308
      6 C           4.5981    1.2500    0.0000 C.3     1  UNL1       -0.0244
      7 C           4.5981    2.2500    0.0000 C.2     1  UNL1       -0.0845
      8 C           3.7320    0.7500    0.0000 C.3     1  UNL1        0.0488
      9 C           8.0622    2.2500    0.0000 C.2     1  UNL1       -0.0850
     10 C           5.4641    3.7500    0.0000 C.3     1  UNL1       -0.0438
     11 C           8.9282    2.7500    0.0000 C.2     1  UNL1       -0.0796
     12 C           3.7320   -0.2500    0.0000 C.2     1  UNL1        0.3126
     13 C           9.7942    2.2500    0.0000 C.3     1  UNL1       -0.0440
     14 C           8.9282    3.7500    0.0000 C.3     1  UNL1       -0.0440
     15 C           2.8660   -1.7500    0.0000 C.ar    1  UNL1        0.1316
     16 C           2.0000   -2.2500    0.0000 C.ar    1  UNL1       -0.0192
     17 C           3.7320   -2.2500    0.0000 C.ar    1  UNL1       -0.0192
     18 C           2.0000   -3.2500    0.0000 C.ar    1  UNL1       -0.0583
     19 C           3.7320   -3.2500    0.0000 C.ar    1  UNL1       -0.0583
     20 C           2.8660   -3.7500    0.0000 C.ar    1  UNL1       -0.0615
     21 H           5.9316    1.7750    0.0000 H       1  UNL1        0.0313
     22 H           6.7287    1.7750    0.0000 H       1  UNL1        0.0313
     23 H           7.5947    3.2250    0.0000 H       1  UNL1        0.0310
     24 H           6.7976    3.2250    0.0000 H       1  UNL1        0.0310
     25 H           4.8101    0.6674    0.0000 H       1  UNL1        0.0313
     26 H           5.2087    1.3577    0.0000 H       1  UNL1        0.0313
     27 H           4.0611    2.5600    0.0000 H       1  UNL1        0.0572
     28 H           3.5200    1.3326    0.0000 H       1  UNL1        0.0381
     29 H           3.1215    0.6423    0.0000 H       1  UNL1        0.0381
     30 H           8.0622    1.6300    0.0000 H       1  UNL1        0.0572
     31 H           6.0841    3.7500    0.0000 H       1  UNL1        0.0274
     32 H           5.4641    4.3700    0.0000 H       1  UNL1        0.0274
     33 H           4.8441    3.7500    0.0000 H       1  UNL1        0.0274
     34 H           9.4842    1.7131    0.0000 H       1  UNL1        0.0274
     35 H          10.3312    1.9400    0.0000 H       1  UNL1        0.0274
     36 H          10.1042    2.7869    0.0000 H       1  UNL1        0.0274
     37 H           9.5482    3.7500    0.0000 H       1  UNL1        0.0274
     38 H           8.9282    4.3700    0.0000 H       1  UNL1        0.0274
     39 H           8.3082    3.7500    0.0000 H       1  UNL1        0.0274
     40 H           1.4631   -1.9400    0.0000 H       1  UNL1        0.0654
     41 H           4.2690   -1.9400    0.0000 H       1  UNL1        0.0654
     42 H           1.4631   -3.5600    0.0000 H       1  UNL1        0.0619
     43 H           4.2690   -3.5600    0.0000 H       1  UNL1        0.0619
     44 H           2.8660   -4.3700    0.0000 H       1  UNL1        0.0618
@<TRIPOS>BOND
     1     1    12    1
     2     1    15    1
     3     2    12    2
     4     3     4    1
     5     3     5    1
     6     3    21    1
     7     3    22    1
     8     4     7    2
     9     4    10    1
    10     5     9    1
    11     5    23    1
    12     5    24    1
    13     6     7    1
    14     6     8    1
    15     6    25    1
    16     6    26    1
    17     7    27    1
    18     8    12    1
    19     8    28    1
    20     8    29    1
    21     9    11    2
    22     9    30    1
    23    10    31    1
    24    10    32    1
    25    10    33    1
    26    11    13    1
    27    11    14    1
    28    13    34    1
    29    13    35    1
    30    13    36    1
    31    14    37    1
    32    14    38    1
    33    14    39    1
    34    15    16   ar
    35    15    17   ar
    36    16    18   ar
    37    16    40    1
    38    17    19   ar
    39    17    41    1
    40    18    20   ar
    41    18    42    1
    42    19    20   ar
    43    19    43    1
    44    20    44    1
