@<TRIPOS>MOLECULE
IMPHY009115
 55 58 0 0 0
SMALL
GASTEIGER

@<TRIPOS>ATOM
      1 O           4.2690   -2.7857    0.0000 O.3     1  UNL1       -0.3339
      2 O           6.0010   -2.7857    0.0000 O.3     1  UNL1       -0.4608
      3 O           4.2690   -5.7857    0.0000 O.3     1  UNL1       -0.3864
      4 O           2.5369   -4.7857    0.0000 O.3     1  UNL1       -0.3866
      5 O           6.0010   -4.7857    0.0000 O.3     1  UNL1       -0.3829
      6 O           6.8671    1.7143    0.0000 O.2     1  UNL1       -0.4507
      7 O           4.2690    1.2143    0.0000 O.3     1  UNL1       -0.5007
      8 O           5.1132    4.7458    0.0000 O.3     1  UNL1       -0.4905
      9 O           4.2690    3.2143    0.0000 O.2     1  UNL1       -0.2830
     10 O           6.8792    5.7836    0.0000 O.3     1  UNL1       -0.5009
     11 O           8.6530    4.7594    0.0000 O.3     1  UNL1       -0.5031
     12 C           4.2690   -4.7857    0.0000 C.3     1  UNL1        0.1151
     13 C           3.4030   -4.2857    0.0000 C.3     1  UNL1        0.1096
     14 C           5.1350   -4.2857    0.0000 C.3     1  UNL1        0.1454
     15 C           3.4030   -3.2857    0.0000 C.3     1  UNL1        0.0883
     16 C           5.1350   -3.2857    0.0000 C.3     1  UNL1        0.2307
     17 C           2.5369   -2.7857    0.0000 C.3     1  UNL1       -0.0360
     18 C           6.0010   -1.7857    0.0000 C.ar    1  UNL1        0.1240
     19 C           6.8671   -1.2857    0.0000 C.ar    1  UNL1       -0.0192
     20 C           5.1350   -1.2857    0.0000 C.ar    1  UNL1       -0.0192
     21 C           6.0010    0.2143    0.0000 C.ar    1  UNL1        0.0213
     22 C           6.8671   -0.2857    0.0000 C.ar    1  UNL1       -0.0475
     23 C           5.1350   -0.2857    0.0000 C.ar    1  UNL1       -0.0475
     24 C           6.0010    1.2143    0.0000 C.ar    1  UNL1        0.1806
     25 C           6.0010    3.2143    0.0000 C.ar    1  UNL1        0.1130
     26 C           6.8671    2.7143    0.0000 C.ar    1  UNL1        0.1468
     27 C           5.1350    1.7143    0.0000 C.ar    1  UNL1        0.2082
     28 C           5.1350    2.7143    0.0000 C.ar    1  UNL1        0.2380
     29 C           5.9850    4.2558    0.0000 C.ar    1  UNL1        0.1795
     30 C           7.7771    3.2212    0.0000 C.ar    1  UNL1        0.0268
     31 C           6.8830    4.7836    0.0000 C.ar    1  UNL1        0.2018
     32 C           7.7851    4.2628    0.0000 C.ar    1  UNL1        0.1655
     33 C           5.1017    5.7457    0.0000 C.3     1  UNL1        0.0790
     34 H           4.8059   -5.0957    0.0000 H       1  UNL1        0.0648
     35 H           2.8660   -3.9757    0.0000 H       1  UNL1        0.0646
     36 H           5.6720   -3.9757    0.0000 H       1  UNL1        0.0683
     37 H           3.4030   -2.6657    0.0000 H       1  UNL1        0.0621
     38 H           5.1350   -2.6657    0.0000 H       1  UNL1        0.1084
     39 H           2.8469   -2.2487    0.0000 H       1  UNL1        0.0255
     40 H           2.0000   -2.4757    0.0000 H       1  UNL1        0.0255
     41 H           2.2269   -3.3226    0.0000 H       1  UNL1        0.0255
     42 H           3.7320   -6.0957    0.0000 H       1  UNL1        0.2100
     43 H           2.0000   -4.4757    0.0000 H       1  UNL1        0.2100
     44 H           6.0010   -5.4057    0.0000 H       1  UNL1        0.2102
     45 H           7.4040   -1.5957    0.0000 H       1  UNL1        0.0654
     46 H           4.5981   -1.5957    0.0000 H       1  UNL1        0.0654
     47 H           7.4040    0.0243    0.0000 H       1  UNL1        0.0626
     48 H           4.5981    0.0243    0.0000 H       1  UNL1        0.0626
     49 H           8.3104    2.9050    0.0000 H       1  UNL1        0.0692
     50 H           3.7320    1.5243    0.0000 H       1  UNL1        0.2924
     51 H           7.4149    6.0957    0.0000 H       1  UNL1        0.2924
     52 H           9.1888    4.4474    0.0000 H       1  UNL1        0.2923
     53 H           5.7216    5.7529    0.0000 H       1  UNL1        0.0660
     54 H           5.0945    6.3657    0.0000 H       1  UNL1        0.0660
     55 H           4.4817    5.7386    0.0000 H       1  UNL1        0.0660
@<TRIPOS>BOND
     1     1    15    1
     2     1    16    1
     3    16     2    1
     4     2    18    1
     5     3    12    1
     6     3    42    1
     7    13     4    1
     8     4    43    1
     9    14     5    1
    10     5    44    1
    11     6    24   ar
    12     6    26   ar
    13     7    27    1
    14     7    50    1
    15     8    29    1
    16     8    33    1
    17     9    28    2
    18    10    31    1
    19    10    51    1
    20    11    32    1
    21    11    52    1
    22    12    13    1
    23    12    14    1
    24    12    34    1
    25    13    15    1
    26    13    35    1
    27    14    16    1
    28    14    36    1
    29    15    17    1
    30    15    37    1
    31    16    38    1
    32    17    39    1
    33    17    40    1
    34    17    41    1
    35    18    19   ar
    36    18    20   ar
    37    19    22   ar
    38    19    45    1
    39    20    23   ar
    40    20    46    1
    41    21    22   ar
    42    21    23   ar
    43    21    24    1
    44    22    47    1
    45    23    48    1
    46    24    27   ar
    47    25    26   ar
    48    25    28   ar
    49    25    29   ar
    50    26    30   ar
    51    27    28   ar
    52    29    31   ar
    53    30    32   ar
    54    30    49    1
    55    31    32   ar
    56    33    53    1
    57    33    54    1
    58    33    55    1
