@<TRIPOS>MOLECULE
IMPHY000327
 48 52 0 0 0
SMALL
GASTEIGER

@<TRIPOS>ATOM
      1 O           1.7898    0.5973    0.0000 O.3     1  UNL1       -0.4646
      2 O           2.6558    2.0973    0.0000 O.2     1  UNL1       -0.2453
      3 N           6.1318   -0.6760    0.0000 N.3     1  UNL1       -0.2979
      4 N           4.5665    2.0352    0.0000 N.pl3   1  UNL1       -0.3164
      5 C           5.2067    0.5973    0.0000 C.3     1  UNL1        0.0525
      6 C           5.2067   -0.3754    0.0000 C.3     1  UNL1        0.0259
      7 C           3.5219   -0.3754    0.0000 C.3     1  UNL1       -0.0022
      8 C           4.3643   -0.8618    0.0000 C.3     1  UNL1       -0.0288
      9 C           6.1318    0.8979    0.0000 C.3     1  UNL1       -0.0238
     10 C           4.1265   -1.4238    0.0000 C.3     1  UNL1       -0.0214
     11 C           4.3643    1.0837    0.0000 C.2     1  UNL1        0.0306
     12 C           6.7036    0.1110    0.0000 C.3     1  UNL1        0.0004
     13 C           5.3586   -1.4238    0.0000 C.3     1  UNL1        0.0026
     14 C           3.5219    0.5973    0.0000 C.2     1  UNL1        0.0578
     15 C           5.9296    1.2482    0.0000 C.ar    1  UNL1       -0.0130
     16 C           5.5339    2.1368    0.0000 C.ar    1  UNL1        0.0353
     17 C           4.1265   -2.4238    0.0000 C.3     1  UNL1       -0.0513
     18 C           6.8970    1.1465    0.0000 C.ar    1  UNL1       -0.0559
     19 C           2.6558    1.0973    0.0000 C.2     1  UNL1        0.3367
     20 C           6.1057    2.9238    0.0000 C.ar    1  UNL1       -0.0403
     21 C           3.2605   -2.9238    0.0000 C.3     1  UNL1       -0.0650
     22 C           7.4688    1.9335    0.0000 C.ar    1  UNL1       -0.0614
     23 C           7.0731    2.8221    0.0000 C.ar    1  UNL1       -0.0600
     24 C           0.9238    1.0973    0.0000 C.3     1  UNL1        0.0820
     25 H           5.6760   -1.0842    0.0000 H       1  UNL1        0.0475
     26 H           2.7008   -0.5952    0.0000 H       1  UNL1        0.0355
     27 H           4.7628   -1.3367    0.0000 H       1  UNL1        0.0287
     28 H           3.9658   -1.3367    0.0000 H       1  UNL1        0.0287
     29 H           5.8796    1.4643    0.0000 H       1  UNL1        0.0290
     30 H           6.6688    1.2079    0.0000 H       1  UNL1        0.0290
     31 H           3.5896   -1.7338    0.0000 H       1  UNL1        0.0319
     32 H           7.1643    0.5258    0.0000 H       1  UNL1        0.0427
     33 H           7.1643   -0.3039    0.0000 H       1  UNL1        0.0427
     34 H           5.8921   -1.7398    0.0000 H       1  UNL1        0.0429
     35 H           5.1948   -2.0218    0.0000 H       1  UNL1        0.0429
     36 H           4.2021    2.5368    0.0000 H       1  UNL1        0.1519
     37 H           4.7371   -2.3162    0.0000 H       1  UNL1        0.0266
     38 H           4.3386   -3.0064    0.0000 H       1  UNL1        0.0266
     39 H           7.1492    0.5801    0.0000 H       1  UNL1        0.0621
     40 H           5.8535    3.4902    0.0000 H       1  UNL1        0.0636
     41 H           3.5705   -3.4607    0.0000 H       1  UNL1        0.0230
     42 H           2.7236   -3.2338    0.0000 H       1  UNL1        0.0230
     43 H           2.9505   -2.3869    0.0000 H       1  UNL1        0.0230
     44 H           8.0854    1.8687    0.0000 H       1  UNL1        0.0618
     45 H           7.4375    3.3237    0.0000 H       1  UNL1        0.0618
     46 H           0.6138    0.5604    0.0000 H       1  UNL1        0.0661
     47 H           0.3869    1.4073    0.0000 H       1  UNL1        0.0661
     48 H           1.2338    1.6343    0.0000 H       1  UNL1        0.0661
@<TRIPOS>BOND
     1     1    19    1
     2     1    24    1
     3     2    19    2
     4     3     6    1
     5     3    12    1
     6     3    13    1
     7     4    11    1
     8     4    16    1
     9     4    36    1
    10     5     6    1
    11     5     9    1
    12     5    11    1
    13     5    15    1
    14     6     8    1
    15     6    25    1
    16     7     8    1
    17     7    10    1
    18     7    14    1
    19     7    26    1
    20     8    27    1
    21     8    28    1
    22     9    12    1
    23     9    29    1
    24     9    30    1
    25    10    13    1
    26    10    17    1
    27    10    31    1
    28    11    14    2
    29    12    32    1
    30    12    33    1
    31    13    34    1
    32    13    35    1
    33    14    19    1
    34    15    16   ar
    35    15    18   ar
    36    16    20   ar
    37    17    21    1
    38    17    37    1
    39    17    38    1
    40    18    22   ar
    41    18    39    1
    42    20    23   ar
    43    20    40    1
    44    21    41    1
    45    21    42    1
    46    21    43    1
    47    22    23   ar
    48    22    44    1
    49    23    45    1
    50    24    46    1
    51    24    47    1
    52    24    48    1
