@<TRIPOS>MOLECULE
IMPHY008466
 46 50 0 0 0
SMALL
GASTEIGER

@<TRIPOS>ATOM
      1 O          10.5661    1.3110    0.0000 O.3     1  UNL1       -0.4815
      2 O           7.0301    1.3388    0.0000 O.2     1  UNL1       -0.4614
      3 O           2.5805   -0.4256    0.0000 O.3     1  UNL1       -0.4526
      4 O           2.5867   -2.0351    0.0000 O.3     1  UNL1       -0.4525
      5 O           6.1317   -2.2167    0.0000 O.3     1  UNL1       -0.4944
      6 O           7.0416   -1.7305    0.0000 O.2     1  UNL1       -0.2864
      7 C          10.5741    2.3526    0.0000 C.3     1  UNL1        0.1235
      8 C           8.7901    1.3041    0.0000 C.ar    1  UNL1        0.0594
      9 C           9.6561    0.8041    0.0000 C.ar    1  UNL1        0.1324
     10 C           9.6720    2.8734    0.0000 C.2     1  UNL1       -0.0408
     11 C           7.9240    0.8041    0.0000 C.ar    1  UNL1        0.1490
     12 C           7.9240   -0.1959    0.0000 C.ar    1  UNL1        0.0654
     13 C           8.7740    2.3456    0.0000 C.2     1  UNL1       -0.0478
     14 C          11.0774    3.2167    0.0000 C.3     1  UNL1       -0.0215
     15 C          11.5741    2.3487    0.0000 C.3     1  UNL1       -0.0215
     16 C           6.1240   -0.2167    0.0000 C.ar    1  UNL1        0.0679
     17 C           9.6561   -0.1959    0.0000 C.ar    1  UNL1       -0.0184
     18 C           7.0301   -0.7305    0.0000 C.ar    1  UNL1        0.2003
     19 C           8.7901   -0.6959    0.0000 C.ar    1  UNL1       -0.0439
     20 C           5.2599   -0.7200    0.0000 C.ar    1  UNL1        0.0341
     21 C           6.1240    0.8249    0.0000 C.ar    1  UNL1        0.1040
     22 C           5.2638   -1.7200    0.0000 C.ar    1  UNL1        0.1317
     23 C           4.3920   -0.2234    0.0000 C.ar    1  UNL1       -0.0047
     24 C           3.5279   -0.7267    0.0000 C.ar    1  UNL1        0.1670
     25 C           3.5317   -1.7267    0.0000 C.ar    1  UNL1        0.1697
     26 C           4.3997   -2.2234    0.0000 C.ar    1  UNL1        0.0262
     27 C           2.0000   -1.2326    0.0000 C.3     1  UNL1        0.2332
     28 C           6.1356   -3.2167    0.0000 C.3     1  UNL1        0.0788
     29 H           9.6696    3.4934    0.0000 H       1  UNL1        0.0611
     30 H           8.2335    2.6494    0.0000 H       1  UNL1        0.0624
     31 H          11.5717    1.7287    0.0000 H       1  UNL1        0.0271
     32 H          12.1941    2.3463    0.0000 H       1  UNL1        0.0271
     33 H          11.5765    2.9687    0.0000 H       1  UNL1        0.0271
     34 H          11.6132    2.9046    0.0000 H       1  UNL1        0.0271
     35 H          11.3895    3.7524    0.0000 H       1  UNL1        0.0271
     36 H          10.5417    3.5287    0.0000 H       1  UNL1        0.0271
     37 H          10.1930   -0.5059    0.0000 H       1  UNL1        0.0654
     38 H           8.7901   -1.3159    0.0000 H       1  UNL1        0.0627
     39 H           5.5883    1.1370    0.0000 H       1  UNL1        0.1037
     40 H           4.3896    0.3966    0.0000 H       1  UNL1        0.0663
     41 H           4.4021   -2.8433    0.0000 H       1  UNL1        0.0692
     42 H           1.5375   -0.8196    0.0000 H       1  UNL1        0.1166
     43 H           1.5407   -1.6491    0.0000 H       1  UNL1        0.1166
     44 H           5.5156   -3.2191    0.0000 H       1  UNL1        0.0660
     45 H           6.1380   -3.8367    0.0000 H       1  UNL1        0.0660
     46 H           6.7556   -3.2143    0.0000 H       1  UNL1        0.0660
@<TRIPOS>BOND
     1     1     7    1
     2     1     9    1
     3     2    11   ar
     4     2    21   ar
     5     3    24    1
     6     3    27    1
     7     4    25    1
     8     4    27    1
     9     5    22    1
    10     5    28    1
    11     6    18    2
    12     7    10    1
    13     7    14    1
    14     7    15    1
    15     8     9   ar
    16     8    11   ar
    17     8    13    1
    18     9    17   ar
    19    10    13    2
    20    10    29    1
    21    11    12   ar
    22    12    18   ar
    23    12    19   ar
    24    13    30    1
    25    14    34    1
    26    14    35    1
    27    14    36    1
    28    15    31    1
    29    15    32    1
    30    15    33    1
    31    16    18   ar
    32    16    20    1
    33    16    21   ar
    34    17    19   ar
    35    17    37    1
    36    19    38    1
    37    20    22   ar
    38    20    23   ar
    39    21    39    1
    40    22    26   ar
    41    23    24   ar
    42    23    40    1
    43    24    25   ar
    44    25    26   ar
    45    26    41    1
    46    27    42    1
    47    27    43    1
    48    28    44    1
    49    28    45    1
    50    28    46    1
