@<TRIPOS>MOLECULE
IMPHY012857
 46 46 0 0 0
SMALL
GASTEIGER

@<TRIPOS>ATOM
      1 O           6.3301   -3.1550    0.0000 O.3     1  UNL1       -0.5062
      2 O           8.0622    2.8450    0.0000 O.3     1  UNL1       -0.4775
      3 O           6.3301    2.8450    0.0000 O.2     1  UNL1       -0.2458
      4 C           5.4641   -1.6550    0.0000 C.ar    1  UNL1       -0.0014
      5 C           7.1962   -1.6550    0.0000 C.ar    1  UNL1       -0.0014
      6 C           6.3301   -2.1550    0.0000 C.ar    1  UNL1        0.1238
      7 C           4.5981   -2.1550    0.0000 C.3     1  UNL1       -0.0058
      8 C           8.0622   -2.1550    0.0000 C.3     1  UNL1       -0.0058
      9 C           5.4641   -0.6550    0.0000 C.ar    1  UNL1       -0.0476
     10 C           7.1962   -0.6550    0.0000 C.ar    1  UNL1       -0.0476
     11 C           6.3301   -0.1550    0.0000 C.ar    1  UNL1       -0.0241
     12 C           3.7320   -1.6550    0.0000 C.2     1  UNL1       -0.0809
     13 C           8.9282   -1.6550    0.0000 C.2     1  UNL1       -0.0809
     14 C           2.8660   -2.1550    0.0000 C.2     1  UNL1       -0.0793
     15 C           9.7942   -2.1550    0.0000 C.2     1  UNL1       -0.0793
     16 C           6.3301    0.8450    0.0000 C.2     1  UNL1       -0.0478
     17 C           2.0000   -1.6550    0.0000 C.3     1  UNL1       -0.0440
     18 C           2.8660   -3.1550    0.0000 C.3     1  UNL1       -0.0440
     19 C          10.6603   -1.6550    0.0000 C.3     1  UNL1       -0.0440
     20 C           9.7942   -3.1550    0.0000 C.3     1  UNL1       -0.0440
     21 C           7.1962    1.3450    0.0000 C.2     1  UNL1        0.0229
     22 C           7.1962    2.3450    0.0000 C.2     1  UNL1        0.3296
     23 H           4.1996   -2.6300    0.0000 H       1  UNL1        0.0357
     24 H           4.9966   -2.6300    0.0000 H       1  UNL1        0.0357
     25 H           7.6636   -2.6300    0.0000 H       1  UNL1        0.0357
     26 H           8.4607   -2.6300    0.0000 H       1  UNL1        0.0357
     27 H           4.9272   -0.3450    0.0000 H       1  UNL1        0.0627
     28 H           7.7331   -0.3450    0.0000 H       1  UNL1        0.0627
     29 H           3.7320   -1.0350    0.0000 H       1  UNL1        0.0575
     30 H           8.9282   -1.0350    0.0000 H       1  UNL1        0.0575
     31 H           5.7932    1.1550    0.0000 H       1  UNL1        0.0626
     32 H           5.7932   -3.4650    0.0000 H       1  UNL1        0.2922
     33 H           2.3100   -1.1181    0.0000 H       1  UNL1        0.0274
     34 H           1.4631   -1.3450    0.0000 H       1  UNL1        0.0274
     35 H           1.6900   -2.1919    0.0000 H       1  UNL1        0.0274
     36 H           2.2460   -3.1550    0.0000 H       1  UNL1        0.0274
     37 H           2.8660   -3.7750    0.0000 H       1  UNL1        0.0274
     38 H           3.4860   -3.1550    0.0000 H       1  UNL1        0.0274
     39 H          10.9703   -2.1919    0.0000 H       1  UNL1        0.0274
     40 H          11.1972   -1.3450    0.0000 H       1  UNL1        0.0274
     41 H          10.3503   -1.1181    0.0000 H       1  UNL1        0.0274
     42 H           9.1742   -3.1550    0.0000 H       1  UNL1        0.0274
     43 H           9.7942   -3.7750    0.0000 H       1  UNL1        0.0274
     44 H          10.4142   -3.1550    0.0000 H       1  UNL1        0.0274
     45 H           7.7331    1.0350    0.0000 H       1  UNL1        0.0689
     46 H           8.0622    3.4650    0.0000 H       1  UNL1        0.2954
@<TRIPOS>BOND
     1     1     6    1
     2     1    32    1
     3     2    22    1
     4     2    46    1
     5     3    22    2
     6     4     6   ar
     7     4     7    1
     8     4     9   ar
     9     5     6   ar
    10     5     8    1
    11     5    10   ar
    12     7    12    1
    13     7    23    1
    14     7    24    1
    15     8    13    1
    16     8    25    1
    17     8    26    1
    18     9    11   ar
    19     9    27    1
    20    10    11   ar
    21    10    28    1
    22    11    16    1
    23    12    14    2
    24    12    29    1
    25    13    15    2
    26    13    30    1
    27    14    17    1
    28    14    18    1
    29    15    19    1
    30    15    20    1
    31    16    21    2
    32    16    31    1
    33    17    33    1
    34    17    34    1
    35    17    35    1
    36    18    36    1
    37    18    37    1
    38    18    38    1
    39    19    39    1
    40    19    40    1
    41    19    41    1
    42    20    42    1
    43    20    43    1
    44    20    44    1
    45    21    22    1
    46    21    45    1
