@<TRIPOS>MOLECULE
IMPHY005976
 55 59 0 0 0
SMALL
GASTEIGER

@<TRIPOS>ATOM
      1 O           6.7975    1.0800    0.0000 O.3     1  UNL1       -0.3673
      2 O           7.4252   -1.7668    0.0000 O.3     1  UNL1       -0.4579
      3 O           8.3618    0.4572    0.0000 O.3     1  UNL1       -0.3843
      4 O           4.7789    1.7836    0.0000 O.3     1  UNL1       -0.3888
      5 O           6.5109    2.7836    0.0000 O.3     1  UNL1       -0.3863
      6 O           5.6328   -2.7857    0.0000 O.3     1  UNL1       -0.3875
      7 O           3.8273    1.3406    0.0000 O.3     1  UNL1       -0.3834
      8 O           9.1868   -1.7194    0.0000 O.2     1  UNL1       -0.2507
      9 O           2.0000    0.3229    0.0000 O.2     1  UNL1       -0.2899
     10 C           6.5109   -0.2164    0.0000 C.3     1  UNL1        0.0713
     11 C           5.6449    0.2836    0.0000 C.3     1  UNL1        0.0103
     12 C           7.3770    0.2836    0.0000 C.3     1  UNL1        0.1186
     13 C           4.7349   -0.2233    0.0000 C.3     1  UNL1        0.0161
     14 C           7.3770    1.2836    0.0000 C.3     1  UNL1        0.1245
     15 C           6.5270   -1.2579    0.0000 C.3     1  UNL1        0.1401
     16 C           5.6449    1.2836    0.0000 C.3     1  UNL1        0.0881
     17 C           6.3975    0.3872    0.0000 C.3     1  UNL1        0.0608
     18 C           4.7269   -1.2648    0.0000 C.3     1  UNL1        0.0182
     19 C           6.5109    1.7836    0.0000 C.3     1  UNL1        0.1126
     20 C           5.6290   -1.7857    0.0000 C.3     1  UNL1        0.0998
     21 C           8.2867   -0.2044    0.0000 C.3     1  UNL1        0.0772
     22 C           3.8081    0.3408    0.0000 C.3     1  UNL1        0.1233
     23 C           4.4001    0.7190    0.0000 C.3     1  UNL1       -0.0558
     24 C           7.8770    2.1496    0.0000 C.3     1  UNL1       -0.0305
     25 C           3.7914   -1.8146    0.0000 C.2     1  UNL1       -0.0630
     26 C           8.3110   -1.2365    0.0000 C.2     1  UNL1        0.3103
     27 C           2.8602   -0.1871    0.0000 C.2     1  UNL1        0.1848
     28 C           2.8518   -1.2721    0.0000 C.2     1  UNL1       -0.0172
     29 C           3.7953   -2.8146    0.0000 C.3     1  UNL1       -0.0430
     30 H           4.9088    0.7086    0.0000 H       1  UNL1        0.0341
     31 H           6.5337   -2.1079    0.0000 H       1  UNL1        0.0768
     32 H           5.6449    1.9036    0.0000 H       1  UNL1        0.0623
     33 H           5.9704    0.8366    0.0000 H       1  UNL1        0.0568
     34 H           5.8456    0.1048    0.0000 H       1  UNL1        0.0568
     35 H           4.7302   -2.1148    0.0000 H       1  UNL1        0.0378
     36 H           7.0479    2.0936    0.0000 H       1  UNL1        0.0649
     37 H           6.1677   -2.0926    0.0000 H       1  UNL1        0.0637
     38 H           8.8999   -0.2961    0.0000 H       1  UNL1        0.0407
     39 H           8.4820    0.3840    0.0000 H       1  UNL1        0.0407
     40 H           3.2766    0.6601    0.0000 H       1  UNL1        0.0682
     41 H           4.9844    0.9266    0.0000 H       1  UNL1        0.0236
     42 H           4.1926    1.3033    0.0000 H       1  UNL1        0.0236
     43 H           3.8159    0.5115    0.0000 H       1  UNL1        0.0236
     44 H           8.4139    1.8396    0.0000 H       1  UNL1        0.0259
     45 H           8.1870    2.6866    0.0000 H       1  UNL1        0.0259
     46 H           7.3400    2.4596    0.0000 H       1  UNL1        0.0259
     47 H           8.5738    1.0398    0.0000 H       1  UNL1        0.2103
     48 H           4.7789    2.4036    0.0000 H       1  UNL1        0.2099
     49 H           7.0479    3.0936    0.0000 H       1  UNL1        0.2100
     50 H           6.1709   -3.0936    0.0000 H       1  UNL1        0.2100
     51 H           2.3137   -1.5800    0.0000 H       1  UNL1        0.0653
     52 H           3.2965    1.6609    0.0000 H       1  UNL1        0.2104
     53 H           3.1753   -2.8170    0.0000 H       1  UNL1        0.0275
     54 H           3.7977   -3.4346    0.0000 H       1  UNL1        0.0275
     55 H           4.4153   -2.8122    0.0000 H       1  UNL1        0.0275
@<TRIPOS>BOND
     1     1    14    1
     2     1    17    1
     3     2    15    1
     4     2    26    1
     5    12     3    1
     6     3    47    1
     7    16     4    1
     8     4    48    1
     9    19     5    1
    10     5    49    1
    11    20     6    1
    12     6    50    1
    13    22     7    1
    14     7    52    1
    15     8    26    2
    16     9    27    2
    17    10    11    1
    18    10    12    1
    19    10    15    1
    20    10    17    1
    21    11    13    1
    22    11    16    1
    23    11    30    1
    24    12    14    1
    25    12    21    1
    26    13    18    1
    27    13    22    1
    28    13    23    1
    29    14    19    1
    30    14    24    1
    31    15    20    1
    32    15    31    1
    33    16    19    1
    34    16    32    1
    35    17    33    1
    36    17    34    1
    37    18    20    1
    38    18    25    1
    39    18    35    1
    40    19    36    1
    41    20    37    1
    42    21    26    1
    43    21    38    1
    44    21    39    1
    45    22    27    1
    46    22    40    1
    47    23    41    1
    48    23    42    1
    49    23    43    1
    50    24    44    1
    51    24    45    1
    52    24    46    1
    53    25    28    2
    54    25    29    1
    55    27    28    1
    56    28    51    1
    57    29    53    1
    58    29    54    1
    59    29    55    1
