@<TRIPOS>MOLECULE
IMPHY011547
 67 72 0 0 0
SMALL
GASTEIGER

@<TRIPOS>ATOM
      1 O           2.9269   -0.3625    0.0000 O.3     1  UNL1       -0.3730
      2 O           4.9852   -1.6884    0.0000 O.3     1  UNL1       -0.3656
      3 O           5.6638    2.8149    0.0000 O.3     1  UNL1       -0.3911
      4 O           2.1240    2.8285    0.0000 O.3     1  UNL1       -0.3911
      5 O           8.2401    1.2834    0.0000 O.3     1  UNL1       -0.4806
      6 O           7.3740   -0.2166    0.0000 O.2     1  UNL1       -0.2510
      7 O          10.0874   -2.5353    0.0000 O.2     1  UNL1       -0.4707
      8 C           3.9099    0.7834    0.0000 C.3     1  UNL1        0.0056
      9 C           4.7760    1.2834    0.0000 C.3     1  UNL1        0.0041
     10 C           5.6420   -0.2166    0.0000 C.3     1  UNL1        0.0241
     11 C           5.6420    0.7834    0.0000 C.3     1  UNL1       -0.0113
     12 C           2.9999    1.2903    0.0000 C.3     1  UNL1        0.0231
     13 C           3.9099   -0.2166    0.0000 C.3     1  UNL1        0.0897
     14 C           4.7760   -0.7166    0.0000 C.3     1  UNL1        0.0952
     15 C           4.7920    2.3250    0.0000 C.3     1  UNL1        0.0636
     16 C           2.9919    2.3319    0.0000 C.3     1  UNL1        0.0654
     17 C           6.3790   -0.8836    0.0000 C.2     1  UNL1       -0.0329
     18 C           2.4131    0.4882    0.0000 C.3     1  UNL1        0.0562
     19 C           3.8940    2.8527    0.0000 C.3     1  UNL1        0.0004
     20 C           5.9739   -1.7914    0.0000 C.3     1  UNL1        0.0819
     21 C           5.6420    1.7834    0.0000 C.3     1  UNL1       -0.0566
     22 C           6.5080    1.2834    0.0000 C.3     1  UNL1        0.0490
     23 C           6.5080    0.2834    0.0000 C.3     1  UNL1       -0.0530
     24 C           2.0000    1.2788    0.0000 C.3     1  UNL1       -0.0547
     25 C           7.3614   -0.9903    0.0000 C.2     1  UNL1       -0.0628
     26 C           6.7094   -2.4514    0.0000 C.3     1  UNL1       -0.0121
     27 C           7.5652   -1.9573    0.0000 C.3     1  UNL1        0.0109
     28 C           7.3740    0.7834    0.0000 C.2     1  UNL1        0.3050
     29 C           8.0325   -0.2489    0.0000 C.3     1  UNL1       -0.0429
     30 C           8.4784   -2.3648    0.0000 C.ar    1  UNL1       -0.0025
     31 C           8.6855   -3.3432    0.0000 C.ar    1  UNL1       -0.0202
     32 C           9.3448   -1.8656    0.0000 C.ar    1  UNL1        0.0954
     33 C           9.6799   -3.4485    0.0000 C.ar    1  UNL1        0.0920
     34 H           3.9099    1.6334    0.0000 H       1  UNL1        0.0340
     35 H           6.1789    0.4734    0.0000 H       1  UNL1        0.0321
     36 H           3.7510   -1.0516    0.0000 H       1  UNL1        0.0625
     37 H           4.0889   -1.2171    0.0000 H       1  UNL1        0.0631
     38 H           4.7980    2.9449    0.0000 H       1  UNL1        0.0600
     39 H           2.9907    2.9519    0.0000 H       1  UNL1        0.0600
     40 H           1.9653    0.9169    0.0000 H       1  UNL1        0.0566
     41 H           1.9292    0.1006    0.0000 H       1  UNL1        0.0566
     42 H           4.2950    3.3256    0.0000 H       1  UNL1        0.0315
     43 H           3.4967    3.3287    0.0000 H       1  UNL1        0.0315
     44 H           5.6292   -2.5684    0.0000 H       1  UNL1        0.0644
     45 H           5.9520    1.2465    0.0000 H       1  UNL1        0.0236
     46 H           6.1789    2.0934    0.0000 H       1  UNL1        0.0236
     47 H           5.3320    2.3204    0.0000 H       1  UNL1        0.0236
     48 H           6.9065    1.7584    0.0000 H       1  UNL1        0.0381
     49 H           6.1095    1.7584    0.0000 H       1  UNL1        0.0381
     50 H           6.8180   -0.2535    0.0000 H       1  UNL1        0.0239
     51 H           7.0450    0.5934    0.0000 H       1  UNL1        0.0239
     52 H           6.1980    0.8204    0.0000 H       1  UNL1        0.0239
     53 H           1.9928    1.8987    0.0000 H       1  UNL1        0.0237
     54 H           1.3800    1.2716    0.0000 H       1  UNL1        0.0237
     55 H           2.0072    0.6588    0.0000 H       1  UNL1        0.0237
     56 H           6.2491   -2.8668    0.0000 H       1  UNL1        0.0302
     57 H           7.0741   -2.9528    0.0000 H       1  UNL1        0.0302
     58 H           8.0475   -1.5677    0.0000 H       1  UNL1        0.0396
     59 H           5.6709    3.4349    0.0000 H       1  UNL1        0.2098
     60 H           2.1216    3.4485    0.0000 H       1  UNL1        0.2098
     61 H           8.4922   -0.6650    0.0000 H       1  UNL1        0.0275
     62 H           8.4485    0.2107    0.0000 H       1  UNL1        0.0275
     63 H           7.5728    0.1671    0.0000 H       1  UNL1        0.0275
     64 H           8.2401    1.9034    0.0000 H       1  UNL1        0.2951
     65 H           8.2702   -3.8035    0.0000 H       1  UNL1        0.0652
     66 H           9.4102   -1.2490    0.0000 H       1  UNL1        0.1032
     67 H           9.9894   -3.9857    0.0000 H       1  UNL1        0.1029
@<TRIPOS>BOND
     1     1    13    1
     2     1    18    1
     3     2    14    1
     4     2    20    1
     5    15     3    1
     6     3    59    1
     7    16     4    1
     8     4    60    1
     9     5    28    1
    10     5    64    1
    11     6    28    2
    12     7    32   ar
    13     7    33   ar
    14     8     9    1
    15     8    12    1
    16     8    13    1
    17     8    34    1
    18     9    11    1
    19     9    15    1
    20     9    21    1
    21    10    11    1
    22    10    14    1
    23    10    17    1
    24    10    23    1
    25    11    22    1
    26    11    35    1
    27    12    16    1
    28    12    18    1
    29    12    24    1
    30    13    14    1
    31    13    36    1
    32    14    37    1
    33    15    19    1
    34    15    38    1
    35    16    19    1
    36    16    39    1
    37    17    20    1
    38    17    25    2
    39    18    40    1
    40    18    41    1
    41    19    42    1
    42    19    43    1
    43    20    26    1
    44    20    44    1
    45    21    45    1
    46    21    46    1
    47    21    47    1
    48    22    28    1
    49    22    48    1
    50    22    49    1
    51    23    50    1
    52    23    51    1
    53    23    52    1
    54    24    53    1
    55    24    54    1
    56    24    55    1
    57    25    27    1
    58    25    29    1
    59    26    27    1
    60    26    56    1
    61    26    57    1
    62    27    30    1
    63    27    58    1
    64    29    61    1
    65    29    62    1
    66    29    63    1
    67    30    31   ar
    68    30    32   ar
    69    31    33   ar
    70    31    65    1
    71    32    66    1
    72    33    67    1
