@<TRIPOS>MOLECULE
IMPHY010802
 15 16 0 0 0
SMALL
GASTEIGER

@<TRIPOS>ATOM
      1 C           4.6093    0.0000    0.0000 C.2     1  UNL1        0.0357
      2 C           5.7587   -1.9934    0.0000 C.3     1  UNL1        0.0725
      3 C           0.0000   -3.9928    0.0000 C.ar    1  UNL1        0.0003
      4 C           0.0000   -5.3217    0.0000 C.ar    1  UNL1        0.0031
      5 C           1.1493   -3.3283    0.0000 C.ar    1  UNL1        0.0061
      6 C           1.1493   -5.9861    0.0000 C.ar    1  UNL1        0.0377
      7 C           4.6093   -3.9928    0.0000 C.ar    1  UNL1        0.1197
      8 C           4.6093   -1.3289    0.0000 C.2     1  UNL1        0.1233
      9 C           2.3047   -3.9928    0.0000 C.ar    1  UNL1        0.0694
     10 C           2.3047   -5.3217    0.0000 C.ar    1  UNL1        0.1516
     11 C           3.4540   -3.3283    0.0000 C.ar    1  UNL1        0.1542
     12 C           4.6093   -5.3217    0.0000 C.ar    1  UNL1        0.3490
     13 O           5.7587   -5.9861    0.0000 O.2     1  UNL1       -0.2444
     14 O           3.4540   -1.9934    0.0000 O.3     1  UNL1       -0.4574
     15 O           3.4540   -5.9861    0.0000 O.2     1  UNL1       -0.4209
@<TRIPOS>BOND
     1     1     8    2
     2     2     8    1
     3     3     4   ar
     4     3     5   ar
     5     4     6   ar
     6     5     9   ar
     7     6    10   ar
     8     7    11   ar
     9     7    12   ar
    10     8    14    1
    11     9    10   ar
    12     9    11   ar
    13    10    15   ar
    14    11    14    1
    15    12    13    2
    16    12    15   ar
