@<TRIPOS>MOLECULE
IMPHY001417
 56 61 0 0 0
SMALL
GASTEIGER

@<TRIPOS>ATOM
      1 O           3.6123   -1.9293    0.0000 O.3     1  UNL1       -0.4615
      2 O           7.8206   -0.5310    0.0000 O.2     1  UNL1       -0.2964
      3 O           5.7591    3.0092    0.0000 O.2     1  UNL1       -0.2884
      4 O           4.1220    2.2928    0.0000 O.2     1  UNL1       -0.2886
      5 O           2.0000   -1.2965    0.0000 O.2     1  UNL1       -0.2512
      6 N           5.7662   -0.6646    0.0000 N.3     1  UNL1       -0.3006
      7 C           5.2241   -0.0044    0.0000 C.3     1  UNL1        0.0046
      8 C           5.6230    1.0536    0.0000 C.3     1  UNL1       -0.0184
      9 C           6.5137    1.6126    0.0000 C.3     1  UNL1        0.0545
     10 C           6.1446   -0.0044    0.0000 C.3     1  UNL1        0.0273
     11 C           6.7185    0.7153    0.0000 C.3     1  UNL1        0.0475
     12 C           4.6502    0.7153    0.0000 C.3     1  UNL1        0.0392
     13 C           3.7400    0.5781    0.0000 C.3     1  UNL1       -0.0055
     14 C           4.8878   -0.8612    0.0000 C.3     1  UNL1       -0.0076
     15 C           7.5048    1.4013    0.0000 C.3     1  UNL1       -0.0354
     16 C           8.2728    1.0700    0.0000 C.3     1  UNL1        0.0389
     17 C           7.1884    2.2387    0.0000 C.3     1  UNL1       -0.0175
     18 C           7.5980    0.4439    0.0000 C.2     1  UNL1        0.1459
     19 C           5.6844    2.0120    0.0000 C.2     1  UNL1        0.2058
     20 C           4.2730   -0.4396    0.0000 C.3     1  UNL1        0.0051
     21 C           4.8550    1.6126    0.0000 C.2     1  UNL1        0.2029
     22 C           3.4038   -0.2788    0.0000 C.3     1  UNL1       -0.0084
     23 C           3.9777   -0.9984    0.0000 C.3     1  UNL1        0.1042
     24 C           8.0680    1.9674    0.0000 C.2     1  UNL1       -0.0655
     25 C           3.1166    1.3599    0.0000 C.3     1  UNL1       -0.0576
     26 C           6.2689   -1.5291    0.0000 C.3     1  UNL1       -0.0124
     27 C           8.8010    2.6476    0.0000 C.2     1  UNL1       -0.0988
     28 C           2.6235   -2.0783    0.0000 C.2     1  UNL1        0.3042
     29 C           2.2582   -3.0092    0.0000 C.3     1  UNL1        0.0332
     30 H           5.2542    1.8194    0.0000 H       1  UNL1        0.0317
     31 H           6.7540   -0.5969    0.0000 H       1  UNL1        0.0475
     32 H           7.1063   -0.0411    0.0000 H       1  UNL1        0.0403
     33 H           4.0721    1.3383    0.0000 H       1  UNL1        0.0394
     34 H           4.8724   -1.4810    0.0000 H       1  UNL1        0.0307
     35 H           5.4956   -0.9841    0.0000 H       1  UNL1        0.0307
     36 H           7.9202    1.8616    0.0000 H       1  UNL1        0.0278
     37 H           7.4354    0.7852    0.0000 H       1  UNL1        0.0278
     38 H           9.0850    0.8195    0.0000 H       1  UNL1        0.0423
     39 H           7.4713    2.7904    0.0000 H       1  UNL1        0.0320
     40 H           6.6942    2.6131    0.0000 H       1  UNL1        0.0320
     41 H           3.6757   -0.6061    0.0000 H       1  UNL1        0.0432
     42 H           4.3108   -1.0585    0.0000 H       1  UNL1        0.0432
     43 H           2.8747    0.0445    0.0000 H       1  UNL1        0.0307
     44 H           2.9935   -0.7436    0.0000 H       1  UNL1        0.0307
     45 H           4.3642   -1.4832    0.0000 H       1  UNL1        0.0734
     46 H           3.6013    1.7465    0.0000 H       1  UNL1        0.0236
     47 H           2.7300    1.8446    0.0000 H       1  UNL1        0.0236
     48 H           2.6318    0.9733    0.0000 H       1  UNL1        0.0236
     49 H           5.7330   -1.8408    0.0000 H       1  UNL1        0.0391
     50 H           6.5806   -2.0650    0.0000 H       1  UNL1        0.0391
     51 H           6.8049   -1.2174    0.0000 H       1  UNL1        0.0391
     52 H           9.3935    2.4648    0.0000 H       1  UNL1        0.0535
     53 H           8.6631    3.2520    0.0000 H       1  UNL1        0.0535
     54 H           1.6810   -2.7827    0.0000 H       1  UNL1        0.0342
     55 H           2.0316   -3.5864    0.0000 H       1  UNL1        0.0342
     56 H           2.8353   -3.2357    0.0000 H       1  UNL1        0.0342
@<TRIPOS>BOND
     1    23     1    1
     2     1    28    1
     3     2    18    2
     4     3    19    2
     5     4    21    2
     6     5    28    2
     7     6    10    1
     8     6    20    1
     9     6    26    1
    10     7     8    1
    11     7    10    1
    12     7    12    1
    13     7    14    1
    14     8     9    1
    15     8    15    1
    16     8    30    1
    17     9    11    1
    18     9    17    1
    19     9    19    1
    20    10    11    1
    21    10    31    1
    22    11    18    1
    23    11    32    1
    24    12    13    1
    25    12    21    1
    26    12    33    1
    27    13    20    1
    28    13    22    1
    29    13    25    1
    30    14    23    1
    31    14    34    1
    32    14    35    1
    33    15    16    1
    34    15    36    1
    35    15    37    1
    36    16    18    1
    37    16    24    1
    38    16    38    1
    39    17    24    1
    40    17    39    1
    41    17    40    1
    42    19    21    1
    43    20    41    1
    44    20    42    1
    45    22    23    1
    46    22    43    1
    47    22    44    1
    48    23    45    1
    49    24    27    2
    50    25    46    1
    51    25    47    1
    52    25    48    1
    53    26    49    1
    54    26    50    1
    55    26    51    1
    56    27    52    1
    57    27    53    1
    58    28    29    1
    59    29    54    1
    60    29    55    1
    61    29    56    1
