@<TRIPOS>MOLECULE
IMPHY006017
 71 75 0 0 0
SMALL
GASTEIGER

@<TRIPOS>ATOM
      1 O           7.4149   -2.1974    0.0000 O.3     1  UNL1       -0.4580
      2 O           5.6489   -3.2352    0.0000 O.3     1  UNL1       -0.3878
      3 O           2.0000   -2.2183    0.0000 O.2     1  UNL1       -0.2968
      4 O           8.6528    3.7073    0.0000 O.2     1  UNL1       -0.4708
      5 O           6.5662   -3.7073    0.0000 O.2     1  UNL1       -0.2512
      6 C           5.6610   -0.1660    0.0000 C.3     1  UNL1       -0.0227
      7 C           4.7510   -0.6728    0.0000 C.3     1  UNL1       -0.0218
      8 C           6.5271   -0.6660    0.0000 C.3     1  UNL1        0.0322
      9 C           4.7430   -1.7144    0.0000 C.3     1  UNL1        0.0060
     10 C           6.5431   -1.7075    0.0000 C.3     1  UNL1        0.1383
     11 C           7.3931    0.8340    0.0000 C.3     1  UNL1       -0.0033
     12 C           7.3931   -0.1660    0.0000 C.2     1  UNL1       -0.0572
     13 C           5.6451   -2.2352    0.0000 C.3     1  UNL1        0.0971
     14 C           5.6610    0.8340    0.0000 C.3     1  UNL1       -0.0480
     15 C           3.8076   -2.2641    0.0000 C.3     1  UNL1        0.0292
     16 C           6.5271    1.3340    0.0000 C.3     1  UNL1       -0.0430
     17 C           3.8242   -0.1087    0.0000 C.3     1  UNL1       -0.0403
     18 C           8.3393    1.1388    0.0000 C.3     1  UNL1       -0.0004
     19 C           4.7587    0.3272    0.0000 C.3     1  UNL1       -0.0589
     20 C           7.3931   -1.1660    0.0000 C.3     1  UNL1       -0.0521
     21 C           2.8763   -0.6367    0.0000 C.3     1  UNL1        0.0069
     22 C           8.3393   -0.4707    0.0000 C.2     1  UNL1       -0.0830
     23 C           8.9229    0.3340    0.0000 C.3     1  UNL1       -0.0267
     24 C           2.8680   -1.7216    0.0000 C.2     1  UNL1        0.1393
     25 C           7.3931    1.8340    0.0000 C.3     1  UNL1       -0.0553
     26 C           3.3109   -3.1321    0.0000 C.3     1  UNL1       -0.0527
     27 C           4.3109   -3.1282    0.0000 C.3     1  UNL1       -0.0527
     28 C           8.6500    2.0893    0.0000 C.ar    1  UNL1       -0.0055
     29 C           7.4264   -3.1974    0.0000 C.2     1  UNL1        0.3043
     30 C           9.6016    2.3967    0.0000 C.ar    1  UNL1       -0.0204
     31 C           8.0636    2.8993    0.0000 C.ar    1  UNL1        0.0951
     32 C           9.6033    3.3967    0.0000 C.ar    1  UNL1        0.0920
     33 C           8.2982   -3.6873    0.0000 C.3     1  UNL1        0.0332
     34 H           6.3972    0.2590    0.0000 H       1  UNL1        0.0316
     35 H           4.7463   -2.5644    0.0000 H       1  UNL1        0.0342
     36 H           6.5491   -2.3274    0.0000 H       1  UNL1        0.0769
     37 H           5.1087   -2.5462    0.0000 H       1  UNL1        0.0634
     38 H           5.4490    1.4166    0.0000 H       1  UNL1        0.0269
     39 H           5.0504    0.7264    0.0000 H       1  UNL1        0.0269
     40 H           6.9256    1.8090    0.0000 H       1  UNL1        0.0274
     41 H           6.1285    1.8090    0.0000 H       1  UNL1        0.0274
     42 H           4.2324    0.3579    0.0000 H       1  UNL1        0.0275
     43 H           3.4343    0.3733    0.0000 H       1  UNL1        0.0275
     44 H           8.9518    1.2350    0.0000 H       1  UNL1        0.0361
     45 H           5.3787    0.3224    0.0000 H       1  UNL1        0.0235
     46 H           4.7635    0.9472    0.0000 H       1  UNL1        0.0235
     47 H           4.1388    0.3319    0.0000 H       1  UNL1        0.0235
     48 H           7.0831   -1.7029    0.0000 H       1  UNL1        0.0239
     49 H           7.9300   -1.4760    0.0000 H       1  UNL1        0.0239
     50 H           7.7031   -0.6290    0.0000 H       1  UNL1        0.0239
     51 H           2.6718   -0.0514    0.0000 H       1  UNL1        0.0342
     52 H           2.2647   -0.7380    0.0000 H       1  UNL1        0.0342
     53 H           8.5319   -1.0600    0.0000 H       1  UNL1        0.0572
     54 H           9.3838   -0.0807    0.0000 H       1  UNL1        0.0314
     55 H           9.3838    0.7488    0.0000 H       1  UNL1        0.0314
     56 H           8.0131    1.8340    0.0000 H       1  UNL1        0.0238
     57 H           7.3931    2.4540    0.0000 H       1  UNL1        0.0238
     58 H           6.7731    1.8340    0.0000 H       1  UNL1        0.0238
     59 H           2.7728   -2.8241    0.0000 H       1  UNL1        0.0239
     60 H           3.0030   -3.6702    0.0000 H       1  UNL1        0.0239
     61 H           3.8490   -3.4400    0.0000 H       1  UNL1        0.0239
     62 H           3.7752   -3.4403    0.0000 H       1  UNL1        0.0239
     63 H           4.6230   -3.6640    0.0000 H       1  UNL1        0.0239
     64 H           4.8466   -2.8162    0.0000 H       1  UNL1        0.0239
     65 H           5.1132   -3.5473    0.0000 H       1  UNL1        0.2099
     66 H          10.1025    2.0314    0.0000 H       1  UNL1        0.0652
     67 H           7.4436    2.9004    0.0000 H       1  UNL1        0.1032
     68 H          10.1055    3.7602    0.0000 H       1  UNL1        0.1029
     69 H           7.9944   -4.2278    0.0000 H       1  UNL1        0.0342
     70 H           8.8387   -3.9911    0.0000 H       1  UNL1        0.0342
     71 H           8.6020   -3.1468    0.0000 H       1  UNL1        0.0342
@<TRIPOS>BOND
     1     1    10    1
     2     1    29    1
     3    13     2    1
     4     2    65    1
     5     3    24    2
     6     4    31   ar
     7     4    32   ar
     8     5    29    2
     9     6     7    1
    10     6     8    1
    11     6    14    1
    12     6    34    1
    13     7     9    1
    14     7    17    1
    15     7    19    1
    16     8    10    1
    17     8    12    1
    18     8    20    1
    19     9    13    1
    20     9    15    1
    21     9    35    1
    22    10    13    1
    23    10    36    1
    24    11    12    1
    25    11    16    1
    26    11    18    1
    27    11    25    1
    28    12    22    2
    29    13    37    1
    30    14    16    1
    31    14    38    1
    32    14    39    1
    33    15    24    1
    34    15    26    1
    35    15    27    1
    36    16    40    1
    37    16    41    1
    38    17    21    1
    39    17    42    1
    40    17    43    1
    41    18    23    1
    42    18    28    1
    43    18    44    1
    44    19    45    1
    45    19    46    1
    46    19    47    1
    47    20    48    1
    48    20    49    1
    49    20    50    1
    50    21    24    1
    51    21    51    1
    52    21    52    1
    53    22    23    1
    54    22    53    1
    55    23    54    1
    56    23    55    1
    57    25    56    1
    58    25    57    1
    59    25    58    1
    60    26    59    1
    61    26    60    1
    62    26    61    1
    63    27    62    1
    64    27    63    1
    65    27    64    1
    66    28    30   ar
    67    28    31   ar
    68    29    33    1
    69    30    32   ar
    70    30    66    1
    71    31    67    1
    72    32    68    1
    73    33    69    1
    74    33    70    1
    75    33    71    1
