@<TRIPOS>MOLECULE
IMPHY006642
 34 38 0 0 0
SMALL
GASTEIGER

@<TRIPOS>ATOM
      1 BR          2.0000    2.7595    0.0000 Br      1  UNL1       -0.0502
      2 O           6.2645   -2.9307    0.0000 O.3     1  UNL1       -0.5033
      3 O           8.2956   -3.1424    0.0000 O.3     1  UNL1       -0.5032
      4 N           5.0393    0.8212    0.0000 N.ar    1  UNL1       -0.3536
      5 N           8.4546    0.4588    0.0000 N.ar    1  UNL1       -0.3540
      6 C           6.8515    0.6259    0.0000 C.ar    1  UNL1        0.0314
      7 C           5.9855    1.1259    0.0000 C.ar    1  UNL1        0.0573
      8 C           5.9855    2.1259    0.0000 C.ar    1  UNL1        0.0081
      9 C           7.7176    1.1259    0.0000 C.ar    1  UNL1        0.0495
     10 C           7.0607   -0.3459    0.0000 C.ar    1  UNL1        0.0131
     11 C           5.0393    2.4306    0.0000 C.ar    1  UNL1        0.0075
     12 C           8.0495   -0.4490    0.0000 C.ar    1  UNL1        0.0513
     13 C           4.4557    1.6259    0.0000 C.ar    1  UNL1        0.0485
     14 C           6.8515    2.6259    0.0000 C.ar    1  UNL1       -0.0500
     15 C           7.7176    2.1259    0.0000 C.ar    1  UNL1       -0.0371
     16 C           6.4400   -1.1747    0.0000 C.ar    1  UNL1       -0.0067
     17 C           8.4860   -1.3879    0.0000 C.ar    1  UNL1        0.0074
     18 C           4.6319    3.3826    0.0000 C.ar    1  UNL1       -0.0510
     19 C           3.4243    1.7174    0.0000 C.ar    1  UNL1       -0.0238
     20 C           6.8547   -2.1235    0.0000 C.ar    1  UNL1        0.1589
     21 C           7.8845   -2.2308    0.0000 C.ar    1  UNL1        0.1602
     22 C           3.6029    3.4979    0.0000 C.ar    1  UNL1       -0.0471
     23 C           2.9950    2.6596    0.0000 C.ar    1  UNL1        0.0199
     24 H           4.8467    0.2318    0.0000 H       1  UNL1        0.1659
     25 H           9.0612    0.5867    0.0000 H       1  UNL1        0.1659
     26 H           6.8515    3.2459    0.0000 H       1  UNL1        0.0625
     27 H           8.2545    2.4359    0.0000 H       1  UNL1        0.0638
     28 H           5.8241   -1.1033    0.0000 H       1  UNL1        0.0662
     29 H           9.1033   -1.4451    0.0000 H       1  UNL1        0.0676
     30 H           5.0017    3.8803    0.0000 H       1  UNL1        0.0625
     31 H           3.0661    1.2113    0.0000 H       1  UNL1        0.0649
     32 H           3.3524    4.0650    0.0000 H       1  UNL1        0.0629
     33 H           6.5149   -3.4979    0.0000 H       1  UNL1        0.2923
     34 H           8.9125   -3.2043    0.0000 H       1  UNL1        0.2923
@<TRIPOS>BOND
     1     1    23    1
     2     2    20    1
     3     2    33    1
     4     3    21    1
     5     3    34    1
     6     4     7   ar
     7     4    13   ar
     8     4    24    1
     9     5     9   ar
    10     5    12   ar
    11     5    25    1
    12     6     7   ar
    13     6     9   ar
    14     6    10   ar
    15     7     8   ar
    16     8    11   ar
    17     8    14   ar
    18     9    15   ar
    19    10    12   ar
    20    10    16   ar
    21    11    13   ar
    22    11    18   ar
    23    12    17   ar
    24    13    19   ar
    25    14    15   ar
    26    14    26    1
    27    15    27    1
    28    16    20   ar
    29    16    28    1
    30    17    21   ar
    31    17    29    1
    32    18    22   ar
    33    18    30    1
    34    19    23   ar
    35    19    31    1
    36    20    21   ar
    37    22    23   ar
    38    22    32    1
