@<TRIPOS>MOLECULE
IMPHY007528
 43 44 0 0 0
SMALL
GASTEIGER

@<TRIPOS>ATOM
      1 C           3.7320   -0.2500    0.0000 C.3     1  UNL1       -0.0347
      2 C           3.7320    0.7500    0.0000 C.3     1  UNL1       -0.0353
      3 C           2.8660   -0.7500    0.0000 C.3     1  UNL1       -0.0356
      4 C           2.8660    1.2500    0.0000 C.3     1  UNL1       -0.0408
      5 C           4.6260   -0.7847    0.0000 C.3     1  UNL1       -0.0471
      6 C           4.6260    1.2847    0.0000 C.3     1  UNL1       -0.0495
      7 C           2.0000   -0.2500    0.0000 C.3     1  UNL1       -0.0495
      8 C           2.0000    0.7500    0.0000 C.3     1  UNL1       -0.0499
      9 C           5.5321   -0.2708    0.0000 C.3     1  UNL1       -0.0436
     10 C           5.5321    0.7708    0.0000 C.3     1  UNL1       -0.0502
     11 C           2.8660   -1.7500    0.0000 C.3     1  UNL1       -0.0436
     12 C           2.8660    2.2500    0.0000 C.3     1  UNL1       -0.0622
     13 C           6.3961   -0.7742    0.0000 C.3     1  UNL1       -0.0624
     14 C           2.0000   -2.2500    0.0000 C.3     1  UNL1       -0.0624
     15 C           3.7320   -2.2500    0.0000 C.3     1  UNL1       -0.0624
     16 H           3.7255   -1.1000    0.0000 H       1  UNL1        0.0306
     17 H           3.7255    1.6000    0.0000 H       1  UNL1        0.0306
     18 H           2.3291   -1.0600    0.0000 H       1  UNL1        0.0306
     19 H           2.3291    1.5600    0.0000 H       1  UNL1        0.0301
     20 H           4.2214   -1.2544    0.0000 H       1  UNL1        0.0271
     21 H           5.0196   -1.2637    0.0000 H       1  UNL1        0.0271
     22 H           5.0196    1.7637    0.0000 H       1  UNL1        0.0268
     23 H           4.2214    1.7544    0.0000 H       1  UNL1        0.0268
     24 H           1.3894   -0.1423    0.0000 H       1  UNL1        0.0268
     25 H           1.7880   -0.8326    0.0000 H       1  UNL1        0.0268
     26 H           1.7880    1.3326    0.0000 H       1  UNL1        0.0268
     27 H           1.3894    0.6423    0.0000 H       1  UNL1        0.0268
     28 H           5.5285   -0.8908    0.0000 H       1  UNL1        0.0298
     29 H           6.1429    0.6647    0.0000 H       1  UNL1        0.0268
     30 H           5.7411    1.3545    0.0000 H       1  UNL1        0.0268
     31 H           2.8660   -2.3700    0.0000 H       1  UNL1        0.0298
     32 H           3.4860    2.2500    0.0000 H       1  UNL1        0.0233
     33 H           2.8660    2.8700    0.0000 H       1  UNL1        0.0233
     34 H           2.2460    2.2500    0.0000 H       1  UNL1        0.0233
     35 H           6.0841   -1.3099    0.0000 H       1  UNL1        0.0232
     36 H           6.9319   -1.0862    0.0000 H       1  UNL1        0.0232
     37 H           6.7082   -0.2384    0.0000 H       1  UNL1        0.0232
     38 H           1.6900   -1.7131    0.0000 H       1  UNL1        0.0232
     39 H           1.4631   -2.5600    0.0000 H       1  UNL1        0.0232
     40 H           2.3100   -2.7869    0.0000 H       1  UNL1        0.0232
     41 H           3.4220   -2.7869    0.0000 H       1  UNL1        0.0232
     42 H           4.2690   -2.5600    0.0000 H       1  UNL1        0.0232
     43 H           4.0420   -1.7131    0.0000 H       1  UNL1        0.0232
@<TRIPOS>BOND
     1     1     2    1
     2     1     3    1
     3     1     5    1
     4     1    16    1
     5     2     4    1
     6     2     6    1
     7     2    17    1
     8     3     7    1
     9     3    11    1
    10     3    18    1
    11     4     8    1
    12     4    12    1
    13     4    19    1
    14     5     9    1
    15     5    20    1
    16     5    21    1
    17     6    10    1
    18     6    22    1
    19     6    23    1
    20     7     8    1
    21     7    24    1
    22     7    25    1
    23     8    26    1
    24     8    27    1
    25     9    10    1
    26     9    13    1
    27     9    28    1
    28    10    29    1
    29    10    30    1
    30    11    14    1
    31    11    15    1
    32    11    31    1
    33    12    32    1
    34    12    33    1
    35    12    34    1
    36    13    35    1
    37    13    36    1
    38    13    37    1
    39    14    38    1
    40    14    39    1
    41    14    40    1
    42    15    41    1
    43    15    42    1
    44    15    43    1
