@<TRIPOS>MOLECULE
IMPHY010774
 18 17 0 0 0
SMALL
GASTEIGER

@<TRIPOS>ATOM
      1 C           3.5664   -1.0322    0.0000 C.3     1  UNL1        0.2175
      2 C           2.3796   -1.0322    0.0000 C.3     1  UNL1        0.2175
      3 C           1.1867   -3.0904    0.0000 C.3     1  UNL1        0.2175
      4 C           2.3796   -5.1487    0.0000 C.3     1  UNL1        0.2175
      5 C           3.5664   -5.1487    0.0000 C.3     1  UNL1        0.2175
      6 C           4.1659   -4.1227    0.0000 C.3     1  UNL1        0.2175
      7 C           3.5664   -3.0904    0.0000 C.3     1  UNL1        0.2175
      8 C           2.3796   -3.0904    0.0000 C.3     1  UNL1        0.2175
      9 C           1.7863   -4.1227    0.0000 C.3     1  UNL1        0.2175
     10 O           0.5934   -4.1227    0.0000 O.3     1  UNL1       -0.2175
     11 O           1.7863   -2.0582    0.0000 O.3     1  UNL1       -0.2175
     12 O           4.1659   -2.0582    0.0000 O.3     1  UNL1       -0.2175
     13 O           5.3526   -4.1227    0.0000 O.3     1  UNL1       -0.2175
     14 O           4.1659   -6.1809    0.0000 O.3     1  UNL1       -0.2175
     15 O           1.7863   -6.1809    0.0000 O.3     1  UNL1       -0.2175
     16 O           0.0000   -3.0904    0.0000 O.3     1  UNL1       -0.2175
     17 O           1.7863    0.0000    0.0000 O.3     1  UNL1       -0.2175
     18 O           4.1659    0.0000    0.0000 O.3     1  UNL1       -0.2175
@<TRIPOS>BOND
     1     1     2    1
     2     1    18    1
     3     2     3    1
     4     2    17    1
     5     3     4    1
     6     3    16    1
     7     4     5    1
     8     4    15    1
     9     5     6    1
    10     5    14    1
    11     6     7    1
    12     6    13    1
    13     7     8    1
    14     7    12    1
    15     8     9    1
    16     8    11    1
    17     9    10    1
