@<TRIPOS>MOLECULE
IMPHY016828
 33 32 0 0 0
SMALL
GASTEIGER

@<TRIPOS>ATOM
      1 O           7.1962    0.7500    0.0000 O.3     1  UNL1       -0.4605
      2 O           6.3301   -0.7500    0.0000 O.2     1  UNL1       -0.2508
      3 C           3.7320    0.7500    0.0000 C.3     1  UNL1       -0.0528
      4 C           4.5981    0.2500    0.0000 C.3     1  UNL1       -0.0430
      5 C           2.8660    0.2500    0.0000 C.3     1  UNL1       -0.0559
      6 C           5.4641    0.7500    0.0000 C.3     1  UNL1        0.0449
      7 C           2.0000    0.7500    0.0000 C.3     1  UNL1       -0.0653
      8 C           6.3301    0.2500    0.0000 C.2     1  UNL1        0.3074
      9 C           8.0622    0.2500    0.0000 C.3     1  UNL1        0.1109
     10 C           8.9282    0.7500    0.0000 C.2     1  UNL1       -0.0483
     11 C           9.7942    0.2500    0.0000 C.2     1  UNL1       -0.0765
     12 C          10.6603    0.7500    0.0000 C.3     1  UNL1       -0.0439
     13 C           9.7942   -0.7500    0.0000 C.3     1  UNL1       -0.0439
     14 H           4.1306    1.2250    0.0000 H       1  UNL1        0.0265
     15 H           3.3335    1.2250    0.0000 H       1  UNL1        0.0265
     16 H           4.1996   -0.2249    0.0000 H       1  UNL1        0.0270
     17 H           4.9966   -0.2249    0.0000 H       1  UNL1        0.0270
     18 H           2.4675   -0.2249    0.0000 H       1  UNL1        0.0263
     19 H           3.2646   -0.2249    0.0000 H       1  UNL1        0.0263
     20 H           5.8626    1.2250    0.0000 H       1  UNL1        0.0377
     21 H           5.0656    1.2250    0.0000 H       1  UNL1        0.0377
     22 H           2.3100    1.2869    0.0000 H       1  UNL1        0.0230
     23 H           1.4631    1.0600    0.0000 H       1  UNL1        0.0230
     24 H           1.6900    0.2131    0.0000 H       1  UNL1        0.0230
     25 H           7.6636   -0.2249    0.0000 H       1  UNL1        0.0743
     26 H           8.4607   -0.2249    0.0000 H       1  UNL1        0.0743
     27 H           8.9282    1.3700    0.0000 H       1  UNL1        0.0605
     28 H          10.9703    0.2131    0.0000 H       1  UNL1        0.0274
     29 H          11.1972    1.0600    0.0000 H       1  UNL1        0.0274
     30 H          10.3503    1.2869    0.0000 H       1  UNL1        0.0274
     31 H           9.1742   -0.7500    0.0000 H       1  UNL1        0.0274
     32 H           9.7942   -1.3700    0.0000 H       1  UNL1        0.0274
     33 H          10.4142   -0.7500    0.0000 H       1  UNL1        0.0274
@<TRIPOS>BOND
     1     1     8    1
     2     1     9    1
     3     2     8    2
     4     3     4    1
     5     3     5    1
     6     3    14    1
     7     3    15    1
     8     4     6    1
     9     4    16    1
    10     4    17    1
    11     5     7    1
    12     5    18    1
    13     5    19    1
    14     6     8    1
    15     6    20    1
    16     6    21    1
    17     7    22    1
    18     7    23    1
    19     7    24    1
    20     9    10    1
    21     9    25    1
    22     9    26    1
    23    10    11    2
    24    10    27    1
    25    11    12    1
    26    11    13    1
    27    12    28    1
    28    12    29    1
    29    12    30    1
    30    13    31    1
    31    13    32    1
    32    13    33    1
