@<TRIPOS>MOLECULE
IMPHY010685
 18 17 0 0 0
SMALL
GASTEIGER

@<TRIPOS>ATOM
      1 C           0.0000   -8.6515    0.0000 C.3     1  UNL1        0.0000
      2 C          12.6855    0.0000    0.0000 C.2     1  UNL1       -0.0020
      3 C           1.1544   -7.9919    0.0000 C.3     1  UNL1        0.0000
      4 C          12.6855   -1.3320    0.0000 C.2     1  UNL1        0.0106
      5 C           2.3088   -8.6515    0.0000 C.3     1  UNL1        0.0000
      6 C           3.4632   -7.9919    0.0000 C.3     1  UNL1        0.0000
      7 C           4.6175   -8.6515    0.0000 C.3     1  UNL1        0.0003
      8 C           5.7719   -7.9919    0.0000 C.3     1  UNL1        0.0047
      9 C           6.9136   -8.6515    0.0000 C.3     1  UNL1        0.0257
     10 C           8.0680   -7.9919    0.0000 C.2     1  UNL1       -0.0297
     11 C           9.2224   -8.6515    0.0000 C.2     1  UNL1       -0.0168
     12 C          10.3768   -7.9919    0.0000 C.3     1  UNL1        0.1020
     13 C          10.3768   -6.6599    0.0000 C.1     1  UNL1       -0.0816
     14 C          10.3768   -5.3279    0.0000 C.1     1  UNL1       -0.0637
     15 C          10.3768   -3.9959    0.0000 C.2     1  UNL1        0.0475
     16 C          11.5312   -3.3236    0.0000 C.2     1  UNL1        0.0195
     17 C          11.5312   -1.9916    0.0000 C.3     1  UNL1        0.1968
     18 O          10.3768   -1.3320    0.0000 O.3     1  UNL1       -0.2134
@<TRIPOS>BOND
     1     1     3    1
     2     2     4    2
     3     3     5    1
     4     4    17    1
     5     5     6    1
     6     6     7    1
     7     7     8    1
     8     8     9    1
     9     9    10    1
    10    10    11    2
    11    11    12    1
    12    12    13    1
    13    13    14    3
    14    14    15    1
    15    15    16    2
    16    16    17    1
    17    17    18    1
