@<TRIPOS>MOLECULE
IMPHY003065
 47 50 0 0 0
SMALL
GASTEIGER

@<TRIPOS>ATOM
      1 O          10.8064   -0.4450    0.0000 O.3     1  UNL1       -0.4526
      2 O          10.8064   -2.0545    0.0000 O.3     1  UNL1       -0.4526
      3 O           4.5923   -1.7222    0.0000 O.3     1  UNL1       -0.5028
      4 O           2.8641   -0.7156    0.0000 O.3     1  UNL1       -0.4885
      5 O           2.8718    1.2844    0.0000 O.3     1  UNL1       -0.4913
      6 O           8.1291    2.2747    0.0000 O.2     1  UNL1       -0.2790
      7 N           7.2458    0.7849    0.0000 N.am    1  UNL1       -0.2759
      8 C           8.1282   -0.7497    0.0000 C.ar    1  UNL1        0.0078
      9 C           7.2342   -0.2151    0.0000 C.ar    1  UNL1        0.0514
     10 C           6.3282   -0.7289    0.0000 C.ar    1  UNL1        0.0077
     11 C           8.1282   -1.7497    0.0000 C.ar    1  UNL1       -0.0124
     12 C           8.9942   -0.2497    0.0000 C.ar    1  UNL1       -0.0066
     13 C           5.4641   -0.2256    0.0000 C.ar    1  UNL1        0.0293
     14 C           6.3282   -1.7706    0.0000 C.ar    1  UNL1       -0.0515
     15 C           7.2342   -2.2844    0.0000 C.ar    1  UNL1       -0.0532
     16 C           9.8602   -0.7497    0.0000 C.ar    1  UNL1        0.1669
     17 C           8.9942   -2.2497    0.0000 C.ar    1  UNL1       -0.0084
     18 C           9.8602   -1.7497    0.0000 C.ar    1  UNL1        0.1668
     19 C           4.5961   -0.7223    0.0000 C.ar    1  UNL1        0.1701
     20 C           5.4679    0.7744    0.0000 C.ar    1  UNL1       -0.0468
     21 C          11.3901   -1.2497    0.0000 C.3     1  UNL1        0.2332
     22 C           3.7320   -0.2189    0.0000 C.ar    1  UNL1        0.2039
     23 C           6.3856    1.2948    0.0000 C.3     1  UNL1        0.0081
     24 C           4.6038    1.2777    0.0000 C.ar    1  UNL1       -0.0155
     25 C           3.7359    0.7811    0.0000 C.ar    1  UNL1        0.1652
     26 C           8.1176    1.2748    0.0000 C.2     1  UNL1        0.2065
     27 C           2.0000   -0.2122    0.0000 C.3     1  UNL1        0.0791
     28 C           2.8757    2.2844    0.0000 C.3     1  UNL1        0.0790
     29 H           8.9942    0.3703    0.0000 H       1  UNL1        0.0662
     30 H           5.7924   -2.0826    0.0000 H       1  UNL1        0.0624
     31 H           7.2414   -2.9044    0.0000 H       1  UNL1        0.0624
     32 H           8.9942   -2.8697    0.0000 H       1  UNL1        0.0661
     33 H           6.0061    1.0823    0.0000 H       1  UNL1        0.0626
     34 H          11.8509   -1.6645    0.0000 H       1  UNL1        0.1166
     35 H          11.8509   -0.8350    0.0000 H       1  UNL1        0.1166
     36 H           6.7018    1.8282    0.0000 H       1  UNL1        0.0432
     37 H           5.8523    1.6110    0.0000 H       1  UNL1        0.0432
     38 H           6.0694    0.7615    0.0000 H       1  UNL1        0.0432
     39 H           4.6062    1.8977    0.0000 H       1  UNL1        0.0655
     40 H           8.6509    0.9586    0.0000 H       1  UNL1        0.1257
     41 H           4.0542   -2.0302    0.0000 H       1  UNL1        0.2923
     42 H           2.3121    0.3235    0.0000 H       1  UNL1        0.0660
     43 H           1.4643    0.0998    0.0000 H       1  UNL1        0.0660
     44 H           1.6879   -0.7480    0.0000 H       1  UNL1        0.0660
     45 H           3.4956    2.2820    0.0000 H       1  UNL1        0.0660
     46 H           2.8780    2.9044    0.0000 H       1  UNL1        0.0660
     47 H           2.2557    2.2868    0.0000 H       1  UNL1        0.0660
@<TRIPOS>BOND
     1     1    16    1
     2     1    21    1
     3     2    18    1
     4     2    21    1
     5     3    19    1
     6     3    41    1
     7     4    22    1
     8     4    27    1
     9     5    25    1
    10     5    28    1
    11     6    26    2
    12     7     9    1
    13     7    23    1
    14     7    26   am
    15     8     9   ar
    16     8    11   ar
    17     8    12   ar
    18     9    10   ar
    19    10    13    1
    20    10    14   ar
    21    11    15   ar
    22    11    17   ar
    23    12    16   ar
    24    12    29    1
    25    13    19   ar
    26    13    20   ar
    27    14    15   ar
    28    14    30    1
    29    15    31    1
    30    16    18   ar
    31    17    18   ar
    32    17    32    1
    33    19    22   ar
    34    20    24   ar
    35    20    33    1
    36    21    34    1
    37    21    35    1
    38    22    25   ar
    39    23    36    1
    40    23    37    1
    41    23    38    1
    42    24    25   ar
    43    24    39    1
    44    26    40    1
    45    27    42    1
    46    27    43    1
    47    27    44    1
    48    28    45    1
    49    28    46    1
    50    28    47    1
