@<TRIPOS>MOLECULE
IMPHY007852
 18 19 0 0 0
SMALL
GASTEIGER

@<TRIPOS>ATOM
      1 C           4.1881    0.5039    0.0000 C.ar    1  UNL1       -0.0179
      2 C           4.1931   -0.4961    0.0000 C.ar    1  UNL1       -0.0179
      3 C           5.1328    0.8133    0.0000 C.ar    1  UNL1       -0.0540
      4 C           5.1408   -0.7961    0.0000 C.ar    1  UNL1       -0.0540
      5 C           3.4032    1.1235    0.0000 C.ar    1  UNL1       -0.0540
      6 C           3.4144   -1.1235    0.0000 C.ar    1  UNL1       -0.0540
      7 C           5.7204    0.0115    0.0000 C.ar    1  UNL1       -0.0606
      8 C           2.4294    0.8961    0.0000 C.ar    1  UNL1       -0.0612
      9 C           2.4384   -0.9058    0.0000 C.ar    1  UNL1       -0.0612
     10 C           2.0000   -0.0070    0.0000 C.ar    1  UNL1       -0.0617
     11 H           5.3225    1.4036    0.0000 H       1  UNL1        0.0624
     12 H           5.3364   -1.3845    0.0000 H       1  UNL1        0.0624
     13 H           3.5381    1.7286    0.0000 H       1  UNL1        0.0624
     14 H           3.5554   -1.7272    0.0000 H       1  UNL1        0.0624
     15 H           6.3404    0.0146    0.0000 H       1  UNL1        0.0618
     16 H           2.0404    1.3789    0.0000 H       1  UNL1        0.0618
     17 H           2.0542   -1.3925    0.0000 H       1  UNL1        0.0618
     18 H           1.3800   -0.0101    0.0000 H       1  UNL1        0.0618
@<TRIPOS>BOND
     1     1     2    1
     2     1     3   ar
     3     1     5   ar
     4     2     4   ar
     5     2     6   ar
     6     3     7   ar
     7     3    11    1
     8     4     7   ar
     9     4    12    1
    10     5     8   ar
    11     5    13    1
    12     6     9   ar
    13     6    14    1
    14     7    15    1
    15     8    10   ar
    16     8    16    1
    17     9    10   ar
    18     9    17    1
    19    10    18    1
