@<TRIPOS>MOLECULE
IMPHY013568
 30 30 0 0 0
SMALL
GASTEIGER

@<TRIPOS>ATOM
      1 O           4.5981    0.9050    0.0000 O.3     1  UNL1       -0.3407
      2 O           6.3301   -1.0950    0.0000 O.3     1  UNL1       -0.3721
      3 O           4.5981   -2.0950    0.0000 O.3     1  UNL1       -0.3864
      4 O           2.8660   -1.0950    0.0000 O.3     1  UNL1       -0.3865
      5 O           6.3301    0.9050    0.0000 O.3     1  UNL1       -0.3649
      6 O           2.8660    1.9050    0.0000 O.3     1  UNL1       -0.3803
      7 C           4.5981   -1.0950    0.0000 C.3     1  UNL1        0.1143
      8 C           3.7320   -0.5950    0.0000 C.3     1  UNL1        0.1119
      9 C           5.4641   -0.5950    0.0000 C.3     1  UNL1        0.1370
     10 C           3.7320    0.4050    0.0000 C.3     1  UNL1        0.1132
     11 C           5.4641    0.4050    0.0000 C.3     1  UNL1        0.1856
     12 C           2.8660    0.9050    0.0000 C.3     1  UNL1        0.0761
     13 C           7.1962   -0.5950    0.0000 C.3     1  UNL1        0.0371
     14 C           2.0000    2.4050    0.0000 C.3     1  UNL1        0.0366
     15 H           4.0611   -1.4050    0.0000 H       1  UNL1        0.0648
     16 H           3.7320   -1.2150    0.0000 H       1  UNL1        0.0647
     17 H           5.4641   -1.2150    0.0000 H       1  UNL1        0.0674
     18 H           3.7320    1.0250    0.0000 H       1  UNL1        0.0647
     19 H           5.4641    1.0250    0.0000 H       1  UNL1        0.0936
     20 H           2.2554    1.0127    0.0000 H       1  UNL1        0.0586
     21 H           2.6540    0.3224    0.0000 H       1  UNL1        0.0586
     22 H           5.1350   -2.4050    0.0000 H       1  UNL1        0.2100
     23 H           2.3291   -0.7850    0.0000 H       1  UNL1        0.2100
     24 H           6.3301    1.5250    0.0000 H       1  UNL1        0.2126
     25 H           7.5062   -1.1319    0.0000 H       1  UNL1        0.0524
     26 H           7.7331   -0.2850    0.0000 H       1  UNL1        0.0524
     27 H           6.8862   -0.0581    0.0000 H       1  UNL1        0.0524
     28 H           2.3100    2.9419    0.0000 H       1  UNL1        0.0524
     29 H           1.4631    2.7150    0.0000 H       1  UNL1        0.0524
     30 H           1.6900    1.8681    0.0000 H       1  UNL1        0.0524
@<TRIPOS>BOND
     1     1    10    1
     2     1    11    1
     3     9     2    1
     4     2    13    1
     5     7     3    1
     6     3    22    1
     7     8     4    1
     8     4    23    1
     9     5    11    1
    10     5    24    1
    11     6    12    1
    12     6    14    1
    13     7     8    1
    14     7     9    1
    15     7    15    1
    16     8    10    1
    17     8    16    1
    18     9    11    1
    19     9    17    1
    20    10    12    1
    21    10    18    1
    22    11    19    1
    23    12    20    1
    24    12    21    1
    25    13    25    1
    26    13    26    1
    27    13    27    1
    28    14    28    1
    29    14    29    1
    30    14    30    1
