@<TRIPOS>MOLECULE
IMPHY005462
 34 36 0 0 0
SMALL
GASTEIGER

@<TRIPOS>ATOM
      1 O           6.0682   -0.4254    0.0000 O.2     1  UNL1       -0.4507
      2 O           7.8003    1.5746    0.0000 O.3     1  UNL1       -0.5007
      3 O           4.3198    2.6092    0.0000 O.3     1  UNL1       -0.5058
      4 O           6.0682    2.5746    0.0000 O.2     1  UNL1       -0.2830
      5 O           2.5381   -0.4495    0.0000 O.3     1  UNL1       -0.5065
      6 O          10.3984   -1.9254    0.0000 O.3     1  UNL1       -0.4951
      7 C           5.2022    1.0746    0.0000 C.ar    1  UNL1        0.1092
      8 C           5.2022    0.0746    0.0000 C.ar    1  UNL1        0.1465
      9 C           6.9343    0.0746    0.0000 C.ar    1  UNL1        0.1806
     10 C           7.8003   -0.4254    0.0000 C.ar    1  UNL1        0.0213
     11 C           6.9343    1.0746    0.0000 C.ar    1  UNL1        0.2082
     12 C           6.0682    1.5746    0.0000 C.ar    1  UNL1        0.2379
     13 C           4.3083    1.6093    0.0000 C.ar    1  UNL1        0.1348
     14 C           4.3083   -0.4601    0.0000 C.ar    1  UNL1        0.0231
     15 C           3.4022    0.0538    0.0000 C.ar    1  UNL1        0.1239
     16 C           3.4022    1.0954    0.0000 C.ar    1  UNL1        0.0223
     17 C           7.8003   -1.4254    0.0000 C.ar    1  UNL1       -0.0475
     18 C           8.6663    0.0746    0.0000 C.ar    1  UNL1       -0.0475
     19 C           8.6663   -1.9254    0.0000 C.ar    1  UNL1       -0.0193
     20 C           9.5323   -0.4254    0.0000 C.ar    1  UNL1       -0.0193
     21 C           9.5323   -1.4254    0.0000 C.ar    1  UNL1        0.1201
     22 C          10.3984   -2.9254    0.0000 C.3     1  UNL1        0.0788
     23 H           4.3154   -1.0800    0.0000 H       1  UNL1        0.0691
     24 H           2.8665    1.4075    0.0000 H       1  UNL1        0.0691
     25 H           7.2634   -1.7354    0.0000 H       1  UNL1        0.0626
     26 H           8.6663    0.6946    0.0000 H       1  UNL1        0.0626
     27 H           8.6663   -2.5454    0.0000 H       1  UNL1        0.0654
     28 H          10.0693   -0.1154    0.0000 H       1  UNL1        0.0654
     29 H           7.8003    2.1946    0.0000 H       1  UNL1        0.2924
     30 H           3.7865    2.9254    0.0000 H       1  UNL1        0.2922
     31 H           2.0000   -0.1416    0.0000 H       1  UNL1        0.2921
     32 H           9.7784   -2.9254    0.0000 H       1  UNL1        0.0660
     33 H          10.3984   -3.5454    0.0000 H       1  UNL1        0.0660
     34 H          11.0184   -2.9254    0.0000 H       1  UNL1        0.0660
@<TRIPOS>BOND
     1     1     8   ar
     2     1     9   ar
     3     2    11    1
     4     2    29    1
     5     3    13    1
     6     3    30    1
     7     4    12    2
     8     5    15    1
     9     5    31    1
    10     6    21    1
    11     6    22    1
    12     7     8   ar
    13     7    12   ar
    14     7    13   ar
    15     8    14   ar
    16     9    10    1
    17     9    11   ar
    18    10    17   ar
    19    10    18   ar
    20    11    12   ar
    21    13    16   ar
    22    14    15   ar
    23    14    23    1
    24    15    16   ar
    25    16    24    1
    26    17    19   ar
    27    17    25    1
    28    18    20   ar
    29    18    26    1
    30    19    21   ar
    31    19    27    1
    32    20    21   ar
    33    20    28    1
    34    22    32    1
    35    22    33    1
    36    22    34    1
