@<TRIPOS>MOLECULE
IMPHY008473
 56 59 0 0 0
SMALL
GASTEIGER

@<TRIPOS>ATOM
      1 O           4.2690   -0.4050    0.0000 O.3     1  UNL1       -0.3635
      2 O           6.0010    1.5950    0.0000 O.3     1  UNL1       -0.3862
      3 O           4.2690    2.5950    0.0000 O.3     1  UNL1       -0.3865
      4 O           2.5369    1.5950    0.0000 O.3     1  UNL1       -0.3866
      5 O           5.1350   -1.9050    0.0000 O.3     1  UNL1       -0.4945
      6 O           6.8671    1.0950    0.0000 O.3     1  UNL1       -0.5054
      7 O           8.6270   -1.9397    0.0000 O.2     1  UNL1       -0.4618
      8 O           8.6155    1.1296    0.0000 O.2     1  UNL1       -0.2863
      9 O          12.9895    1.6292    0.0000 O.3     1  UNL1       -0.4951
     10 C           5.1350    1.0950    0.0000 C.3     1  UNL1        0.1139
     11 C           4.2690    1.5950    0.0000 C.3     1  UNL1        0.1120
     12 C           5.1350    0.0950    0.0000 C.3     1  UNL1        0.1192
     13 C           3.4030    1.0950    0.0000 C.3     1  UNL1        0.1093
     14 C           3.4030    0.0950    0.0000 C.3     1  UNL1        0.0851
     15 C           6.0010   -0.4050    0.0000 C.ar    1  UNL1        0.0676
     16 C           2.5369   -0.4050    0.0000 C.3     1  UNL1       -0.0361
     17 C           6.8671    0.0950    0.0000 C.ar    1  UNL1        0.1404
     18 C           6.0010   -1.4050    0.0000 C.ar    1  UNL1        0.1328
     19 C           7.7331   -0.4050    0.0000 C.ar    1  UNL1        0.1064
     20 C           6.8671   -1.9050    0.0000 C.ar    1  UNL1        0.0237
     21 C           7.7331   -1.4050    0.0000 C.ar    1  UNL1        0.1454
     22 C           8.6270    0.1297    0.0000 C.ar    1  UNL1        0.2037
     23 C           9.5331   -0.3842    0.0000 C.ar    1  UNL1        0.0644
     24 C           9.5331   -1.4258    0.0000 C.ar    1  UNL1        0.1038
     25 C           5.1350   -2.9050    0.0000 C.3     1  UNL1        0.0788
     26 C          10.3972    0.1192    0.0000 C.ar    1  UNL1       -0.0110
     27 C          10.3933    1.1191    0.0000 C.ar    1  UNL1       -0.0504
     28 C          11.2651   -0.3775    0.0000 C.ar    1  UNL1       -0.0504
     29 C          11.2574    1.6225    0.0000 C.ar    1  UNL1       -0.0194
     30 C          12.1292    0.1258    0.0000 C.ar    1  UNL1       -0.0194
     31 C          12.1254    1.1258    0.0000 C.ar    1  UNL1        0.1201
     32 C          13.8574    1.1325    0.0000 C.3     1  UNL1        0.0788
     33 H           5.6720    0.7850    0.0000 H       1  UNL1        0.0649
     34 H           4.8059    1.9050    0.0000 H       1  UNL1        0.0647
     35 H           5.1350   -0.7550    0.0000 H       1  UNL1        0.0676
     36 H           3.4030    1.7150    0.0000 H       1  UNL1        0.0646
     37 H           3.4030   -0.5250    0.0000 H       1  UNL1        0.0620
     38 H           2.2269    0.1319    0.0000 H       1  UNL1        0.0255
     39 H           2.0000   -0.7150    0.0000 H       1  UNL1        0.0255
     40 H           2.8469   -0.9419    0.0000 H       1  UNL1        0.0255
     41 H           6.0010    2.2150    0.0000 H       1  UNL1        0.2100
     42 H           3.7320    2.9050    0.0000 H       1  UNL1        0.2100
     43 H           2.0000    1.2850    0.0000 H       1  UNL1        0.2100
     44 H           6.8671   -2.5250    0.0000 H       1  UNL1        0.0691
     45 H           7.4040    1.4050    0.0000 H       1  UNL1        0.2922
     46 H          10.0688   -1.7379    0.0000 H       1  UNL1        0.1037
     47 H           4.5150   -2.9050    0.0000 H       1  UNL1        0.0660
     48 H           5.1350   -3.5250    0.0000 H       1  UNL1        0.0660
     49 H           5.7550   -2.9050    0.0000 H       1  UNL1        0.0660
     50 H           9.8552    1.4271    0.0000 H       1  UNL1        0.0625
     51 H          11.2675   -0.9975    0.0000 H       1  UNL1        0.0625
     52 H          11.2550    2.2425    0.0000 H       1  UNL1        0.0654
     53 H          12.6674   -0.1821    0.0000 H       1  UNL1        0.0654
     54 H          13.5495    0.5944    0.0000 H       1  UNL1        0.0660
     55 H          14.3955    0.8246    0.0000 H       1  UNL1        0.0660
     56 H          14.1653    1.6706    0.0000 H       1  UNL1        0.0660
@<TRIPOS>BOND
     1     1    12    1
     2     1    14    1
     3     2    10    1
     4     2    41    1
     5    11     3    1
     6     3    42    1
     7    13     4    1
     8     4    43    1
     9     5    18    1
    10     5    25    1
    11     6    17    1
    12     6    45    1
    13     7    21   ar
    14     7    24   ar
    15     8    22    2
    16     9    31    1
    17     9    32    1
    18    10    11    1
    19    10    12    1
    20    10    33    1
    21    11    13    1
    22    11    34    1
    23    12    15    1
    24    12    35    1
    25    13    14    1
    26    13    36    1
    27    14    16    1
    28    14    37    1
    29    15    17   ar
    30    15    18   ar
    31    16    38    1
    32    16    39    1
    33    16    40    1
    34    17    19   ar
    35    18    20   ar
    36    19    21   ar
    37    19    22   ar
    38    20    21   ar
    39    20    44    1
    40    22    23   ar
    41    23    24   ar
    42    23    26    1
    43    24    46    1
    44    25    47    1
    45    25    48    1
    46    25    49    1
    47    26    27   ar
    48    26    28   ar
    49    27    29   ar
    50    27    50    1
    51    28    30   ar
    52    28    51    1
    53    29    31   ar
    54    29    52    1
    55    30    31   ar
    56    30    53    1
    57    32    54    1
    58    32    55    1
    59    32    56    1
