@<TRIPOS>MOLECULE
IMPHY012865
 34 36 0 0 0
SMALL
GASTEIGER

@<TRIPOS>ATOM
      1 O           6.0682   -1.0000    0.0000 O.2     1  UNL1       -0.4505
      2 O           2.5381    1.0241    0.0000 O.3     1  UNL1       -0.4913
      3 O           6.0682    2.0000    0.0000 O.2     1  UNL1       -0.2863
      4 O           4.3198   -2.0346    0.0000 O.3     1  UNL1       -0.5008
      5 O           7.8167    2.0346    0.0000 O.3     1  UNL1       -0.5058
      6 O           9.5984   -1.0241    0.0000 O.3     1  UNL1       -0.4949
      7 O           2.5381   -1.0241    0.0000 O.3     1  UNL1       -0.5008
      8 C           5.2022    0.5000    0.0000 C.ar    1  UNL1        0.0720
      9 C           6.9343    0.5000    0.0000 C.ar    1  UNL1        0.1061
     10 C           5.2022   -0.5000    0.0000 C.ar    1  UNL1        0.1843
     11 C           6.9343   -0.5000    0.0000 C.ar    1  UNL1        0.1464
     12 C           6.0682    1.0000    0.0000 C.ar    1  UNL1        0.2039
     13 C           4.3083    1.0347    0.0000 C.ar    1  UNL1       -0.0017
     14 C           4.3083   -1.0347    0.0000 C.ar    1  UNL1        0.2059
     15 C           7.8282    1.0347    0.0000 C.ar    1  UNL1        0.1347
     16 C           7.8282   -1.0347    0.0000 C.ar    1  UNL1        0.0233
     17 C           3.4022    0.5208    0.0000 C.ar    1  UNL1        0.1659
     18 C           3.4022   -0.5208    0.0000 C.ar    1  UNL1        0.2046
     19 C           8.7343   -0.5208    0.0000 C.ar    1  UNL1        0.1271
     20 C           8.7343    0.5208    0.0000 C.ar    1  UNL1        0.0225
     21 C           2.5420    2.0241    0.0000 C.3     1  UNL1        0.0790
     22 C          10.4663   -0.5275    0.0000 C.3     1  UNL1        0.0788
     23 H           4.3154    1.6546    0.0000 H       1  UNL1        0.0664
     24 H           7.8210   -1.6546    0.0000 H       1  UNL1        0.0691
     25 H           9.2700    0.8329    0.0000 H       1  UNL1        0.0691
     26 H           3.7865   -2.3508    0.0000 H       1  UNL1        0.2924
     27 H           8.3500    2.3508    0.0000 H       1  UNL1        0.2922
     28 H           2.0000   -0.7162    0.0000 H       1  UNL1        0.2924
     29 H           3.1620    2.0218    0.0000 H       1  UNL1        0.0660
     30 H           2.5444    2.6441    0.0000 H       1  UNL1        0.0660
     31 H           1.9220    2.0265    0.0000 H       1  UNL1        0.0660
     32 H          10.7743   -1.0656    0.0000 H       1  UNL1        0.0660
     33 H          11.0045   -0.2196    0.0000 H       1  UNL1        0.0660
     34 H          10.1584    0.0106    0.0000 H       1  UNL1        0.0660
@<TRIPOS>BOND
     1     1    10   ar
     2     1    11   ar
     3     2    17    1
     4     2    21    1
     5     3    12    2
     6     4    14    1
     7     4    26    1
     8     5    15    1
     9     5    27    1
    10     6    19    1
    11     6    22    1
    12     7    18    1
    13     7    28    1
    14     8    10   ar
    15     8    12   ar
    16     8    13   ar
    17     9    11   ar
    18     9    12   ar
    19     9    15   ar
    20    10    14   ar
    21    11    16   ar
    22    13    17   ar
    23    13    23    1
    24    14    18   ar
    25    15    20   ar
    26    16    19   ar
    27    16    24    1
    28    17    18   ar
    29    19    20   ar
    30    20    25    1
    31    21    29    1
    32    21    30    1
    33    21    31    1
    34    22    32    1
    35    22    33    1
    36    22    34    1
