@<TRIPOS>MOLECULE
IMPHY005115
 81 86 0 0 0
SMALL
GASTEIGER

@<TRIPOS>ATOM
      1 O           7.5330    1.4284    0.0000 O.3     1  UNL1       -0.4568
      2 O           8.3556    3.0276    0.0000 O.2     1  UNL1       -0.2502
      3 O           2.1233   -2.4076    0.0000 O.3     1  UNL1       -0.3912
      4 C           6.7804    1.3248    0.0000 C.3     1  UNL1        0.0138
      5 C           7.6464    0.8248    0.0000 C.3     1  UNL1        0.1234
      6 C           5.8704    0.8180    0.0000 C.3     1  UNL1       -0.0197
      7 C           5.8623   -0.2236    0.0000 C.3     1  UNL1       -0.0292
      8 C           8.5124    1.3248    0.0000 C.3     1  UNL1        0.0181
      9 C           8.5124    2.3248    0.0000 C.3     1  UNL1        0.0745
     10 C           4.9269   -0.7733    0.0000 C.3     1  UNL1       -0.0252
     11 C           7.6624   -0.2167    0.0000 C.3     1  UNL1       -0.0117
     12 C           6.7804    2.3248    0.0000 C.3     1  UNL1       -0.0424
     13 C           6.7644   -0.7444    0.0000 C.3     1  UNL1       -0.0456
     14 C           3.9873   -0.2308    0.0000 C.3     1  UNL1       -0.0278
     15 C           4.9435    1.3821    0.0000 C.3     1  UNL1       -0.0464
     16 C           7.6464    2.8248    0.0000 C.3     1  UNL1       -0.0362
     17 C           9.4064    0.7902    0.0000 C.3     1  UNL1       -0.0338
     18 C           3.9956    0.8541    0.0000 C.3     1  UNL1       -0.0486
     19 C           6.1376    2.0909    0.0000 C.3     1  UNL1       -0.0554
     20 C           9.4064    2.8595    0.0000 C.3     1  UNL1       -0.0366
     21 C           5.5356    1.7603    0.0000 C.3     1  UNL1       -0.0587
     22 C           2.9999   -0.7808    0.0000 C.3     1  UNL1       -0.0056
     23 C           7.9330    2.1212    0.0000 C.2     1  UNL1        0.3143
     24 C           4.9443   -1.9034    0.0000 C.3     1  UNL1       -0.0447
     25 C          10.3124    1.3040    0.0000 C.3     1  UNL1       -0.0409
     26 C          10.3124    2.3456    0.0000 C.3     1  UNL1       -0.0492
     27 C           5.7929   -1.2733    0.0000 C.3     1  UNL1       -0.0590
     28 C           2.9912   -1.9109    0.0000 C.3     1  UNL1        0.0606
     29 C           3.9700   -2.4760    0.0000 C.3     1  UNL1       -0.0258
     30 C           9.3948   -0.2098    0.0000 C.3     1  UNL1       -0.0618
     31 C           2.0000   -0.7692    0.0000 C.3     1  UNL1       -0.0572
     32 C           2.5100    0.0910    0.0000 C.3     1  UNL1       -0.0572
     33 C          11.1765    0.8007    0.0000 C.3     1  UNL1       -0.0622
     34 H           5.8656   -1.0736    0.0000 H       1  UNL1        0.0312
     35 H           8.5124    0.4748    0.0000 H       1  UNL1        0.0353
     36 H           7.8805   -0.7971    0.0000 H       1  UNL1        0.0304
     37 H           8.2716   -0.1012    0.0000 H       1  UNL1        0.0304
     38 H           6.5683    2.9074    0.0000 H       1  UNL1        0.0272
     39 H           6.1698    2.2172    0.0000 H       1  UNL1        0.0272
     40 H           6.3671   -1.2204    0.0000 H       1  UNL1        0.0270
     41 H           7.1654   -1.2173    0.0000 H       1  UNL1        0.0270
     42 H           3.2561    0.2026    0.0000 H       1  UNL1        0.0312
     43 H           5.3517    1.8487    0.0000 H       1  UNL1        0.0271
     44 H           4.5536    1.8641    0.0000 H       1  UNL1        0.0271
     45 H           8.0449    3.2998    0.0000 H       1  UNL1        0.0276
     46 H           7.2479    3.2998    0.0000 H       1  UNL1        0.0276
     47 H           9.9403    0.4750    0.0000 H       1  UNL1        0.0305
     48 H           3.7911    1.4394    0.0000 H       1  UNL1        0.0268
     49 H           3.3840    0.7527    0.0000 H       1  UNL1        0.0268
     50 H           6.6125    2.4894    0.0000 H       1  UNL1        0.0236
     51 H           5.7390    2.5658    0.0000 H       1  UNL1        0.0236
     52 H           5.6626    1.6924    0.0000 H       1  UNL1        0.0236
     53 H           9.8000    3.3385    0.0000 H       1  UNL1        0.0276
     54 H           9.0018    3.3293    0.0000 H       1  UNL1        0.0276
     55 H           6.1198    1.9678    0.0000 H       1  UNL1        0.0235
     56 H           5.3280    2.3445    0.0000 H       1  UNL1        0.0235
     57 H           4.9514    1.5527    0.0000 H       1  UNL1        0.0235
     58 H           5.1624   -2.4838    0.0000 H       1  UNL1        0.0271
     59 H           5.5535   -1.7879    0.0000 H       1  UNL1        0.0271
     60 H          10.3088    0.6840    0.0000 H       1  UNL1        0.0301
     61 H          10.9233    2.2396    0.0000 H       1  UNL1        0.0268
     62 H          10.5215    2.9293    0.0000 H       1  UNL1        0.0268
     63 H           5.4829   -1.8103    0.0000 H       1  UNL1        0.0235
     64 H           6.3299   -1.5833    0.0000 H       1  UNL1        0.0235
     65 H           6.1029   -0.7364    0.0000 H       1  UNL1        0.0235
     66 H           2.9900   -2.5309    0.0000 H       1  UNL1        0.0599
     67 H           3.5727   -2.9520    0.0000 H       1  UNL1        0.0290
     68 H           4.3709   -2.9489    0.0000 H       1  UNL1        0.0290
     69 H           8.7748   -0.2026    0.0000 H       1  UNL1        0.0233
     70 H           9.3876   -0.8297    0.0000 H       1  UNL1        0.0233
     71 H          10.0148   -0.2169    0.0000 H       1  UNL1        0.0233
     72 H           2.0072   -0.1492    0.0000 H       1  UNL1        0.0236
     73 H           1.3800   -0.7620    0.0000 H       1  UNL1        0.0236
     74 H           1.9928   -1.3892    0.0000 H       1  UNL1        0.0236
     75 H           3.0505    0.3948    0.0000 H       1  UNL1        0.0236
     76 H           2.2062    0.6315    0.0000 H       1  UNL1        0.0236
     77 H           1.9695   -0.2128    0.0000 H       1  UNL1        0.0236
     78 H          10.8645    0.2649    0.0000 H       1  UNL1        0.0233
     79 H          11.7123    0.4886    0.0000 H       1  UNL1        0.0233
     80 H          11.4886    1.3364    0.0000 H       1  UNL1        0.0233
     81 H           2.1209   -3.0276    0.0000 H       1  UNL1        0.2098
@<TRIPOS>BOND
     1     1     5    1
     2     1    23    1
     3     2    23    2
     4    28     3    1
     5     3    81    1
     6     4     5    1
     7     4     6    1
     8     4    12    1
     9     4    19    1
    10     5     8    1
    11     5    11    1
    12     6     7    1
    13     6    15    1
    14     6    21    1
    15     7    10    1
    16     7    13    1
    17     7    34    1
    18     8     9    1
    19     8    17    1
    20     8    35    1
    21     9    16    1
    22     9    20    1
    23     9    23    1
    24    10    14    1
    25    10    24    1
    26    10    27    1
    27    11    13    1
    28    11    36    1
    29    11    37    1
    30    12    16    1
    31    12    38    1
    32    12    39    1
    33    13    40    1
    34    13    41    1
    35    14    18    1
    36    14    22    1
    37    14    42    1
    38    15    18    1
    39    15    43    1
    40    15    44    1
    41    16    45    1
    42    16    46    1
    43    17    25    1
    44    17    30    1
    45    17    47    1
    46    18    48    1
    47    18    49    1
    48    19    50    1
    49    19    51    1
    50    19    52    1
    51    20    26    1
    52    20    53    1
    53    20    54    1
    54    21    55    1
    55    21    56    1
    56    21    57    1
    57    22    28    1
    58    22    31    1
    59    22    32    1
    60    24    29    1
    61    24    58    1
    62    24    59    1
    63    25    26    1
    64    25    33    1
    65    25    60    1
    66    26    61    1
    67    26    62    1
    68    27    63    1
    69    27    64    1
    70    27    65    1
    71    28    29    1
    72    28    66    1
    73    29    67    1
    74    29    68    1
    75    30    69    1
    76    30    70    1
    77    30    71    1
    78    31    72    1
    79    31    73    1
    80    31    74    1
    81    32    75    1
    82    32    76    1
    83    32    77    1
    84    33    78    1
    85    33    79    1
    86    33    80    1
