@<TRIPOS>MOLECULE
IMPHY012173
 15 15 0 0 0
SMALL
GASTEIGER

@<TRIPOS>ATOM
      1 O           5.0929   -0.7694    0.0000 O.3     1  UNL1       -0.3463
      2 O           5.5929    0.7694    0.0000 O.3     1  UNL1       -0.3514
      3 O           2.5896    0.1785    0.0000 O.3     1  UNL1       -0.3924
      4 C           4.2839   -0.1816    0.0000 C.3     1  UNL1        0.1076
      5 C           4.5929    0.7694    0.0000 C.3     1  UNL1        0.0788
      6 C           3.3328   -0.4907    0.0000 C.3     1  UNL1        0.0726
      7 C           5.9019   -0.1816    0.0000 C.3     1  UNL1        0.1488
      8 H           4.1869   -0.7940    0.0000 H       1  UNL1        0.0643
      9 H           4.6577    1.3860    0.0000 H       1  UNL1        0.0587
     10 H           3.9864    0.8983    0.0000 H       1  UNL1        0.0587
     11 H           2.8442   -0.8724    0.0000 H       1  UNL1        0.0584
     12 H           3.6239   -1.0381    0.0000 H       1  UNL1        0.0584
     13 H           6.2119   -0.7186    0.0000 H       1  UNL1        0.0871
     14 H           6.4683    0.0705    0.0000 H       1  UNL1        0.0871
     15 H           2.0000   -0.0131    0.0000 H       1  UNL1        0.2095
@<TRIPOS>BOND
     1     1     4    1
     2     1     7    1
     3     2     5    1
     4     2     7    1
     5     3     6    1
     6     3    15    1
     7     4     5    1
     8     4     6    1
     9     4     8    1
    10     5     9    1
    11     5    10    1
    12     6    11    1
    13     6    12    1
    14     7    13    1
    15     7    14    1
