@<TRIPOS>MOLECULE
IMPHY016660
 46 45 0 0 0
SMALL
GASTEIGER

@<TRIPOS>ATOM
      1 O          14.1244    0.7500    0.0000 O.2     1  UNL1       -0.3010
      2 C           8.0622    0.2500    0.0000 C.3     1  UNL1       -0.0308
      3 C           8.9282    0.7500    0.0000 C.3     1  UNL1       -0.0286
      4 C           5.4641    0.7500    0.0000 C.3     1  UNL1       -0.0286
      5 C           6.3301    0.2500    0.0000 C.2     1  UNL1       -0.0762
      6 C           7.1962    0.7500    0.0000 C.2     1  UNL1       -0.0847
      7 C           9.7942    0.2500    0.0000 C.2     1  UNL1       -0.0762
      8 C           4.5981    0.2500    0.0000 C.3     1  UNL1       -0.0308
      9 C          10.6603    0.7500    0.0000 C.2     1  UNL1       -0.0846
     10 C           6.3301   -0.7500    0.0000 C.3     1  UNL1       -0.0438
     11 C          11.5263    0.2500    0.0000 C.3     1  UNL1       -0.0281
     12 C           9.7942   -0.7500    0.0000 C.3     1  UNL1       -0.0438
     13 C           3.7320    0.7500    0.0000 C.2     1  UNL1       -0.0850
     14 C          12.3923    0.7500    0.0000 C.3     1  UNL1        0.0062
     15 C           2.8660    0.2500    0.0000 C.2     1  UNL1       -0.0796
     16 C           2.0000    0.7500    0.0000 C.3     1  UNL1       -0.0440
     17 C           2.8660   -0.7500    0.0000 C.3     1  UNL1       -0.0440
     18 C          13.2583    0.2500    0.0000 C.2     1  UNL1        0.1206
     19 H           7.6636   -0.2249    0.0000 H       1  UNL1        0.0310
     20 H           8.4607   -0.2249    0.0000 H       1  UNL1        0.0310
     21 H           9.3267    1.2250    0.0000 H       1  UNL1        0.0313
     22 H           8.5297    1.2250    0.0000 H       1  UNL1        0.0313
     23 H           5.8626    1.2250    0.0000 H       1  UNL1        0.0313
     24 H           5.0656    1.2250    0.0000 H       1  UNL1        0.0313
     25 H           7.1962    1.3700    0.0000 H       1  UNL1        0.0572
     26 H           4.1996   -0.2249    0.0000 H       1  UNL1        0.0310
     27 H           4.9966   -0.2249    0.0000 H       1  UNL1        0.0310
     28 H          10.6603    1.3700    0.0000 H       1  UNL1        0.0572
     29 H           5.7101   -0.7500    0.0000 H       1  UNL1        0.0274
     30 H           6.3301   -1.3700    0.0000 H       1  UNL1        0.0274
     31 H           6.9501   -0.7500    0.0000 H       1  UNL1        0.0274
     32 H          11.1278   -0.2249    0.0000 H       1  UNL1        0.0311
     33 H          11.9248   -0.2249    0.0000 H       1  UNL1        0.0311
     34 H           3.7320    1.3700    0.0000 H       1  UNL1        0.0572
     35 H           9.1742   -0.7500    0.0000 H       1  UNL1        0.0274
     36 H           9.7942   -1.3700    0.0000 H       1  UNL1        0.0274
     37 H          10.4142   -0.7500    0.0000 H       1  UNL1        0.0274
     38 H          12.7908    1.2250    0.0000 H       1  UNL1        0.0342
     39 H          11.9938    1.2250    0.0000 H       1  UNL1        0.0342
     40 H           2.3100    1.2869    0.0000 H       1  UNL1        0.0274
     41 H           1.4631    1.0600    0.0000 H       1  UNL1        0.0274
     42 H           1.6900    0.2131    0.0000 H       1  UNL1        0.0274
     43 H           2.2460   -0.7500    0.0000 H       1  UNL1        0.0274
     44 H           2.8660   -1.3700    0.0000 H       1  UNL1        0.0274
     45 H           3.4860   -0.7500    0.0000 H       1  UNL1        0.0274
     46 H          13.2583   -0.3700    0.0000 H       1  UNL1        0.1026
@<TRIPOS>BOND
     1     1    18    2
     2     2     3    1
     3     2     6    1
     4     2    19    1
     5     2    20    1
     6     3     7    1
     7     3    21    1
     8     3    22    1
     9     4     5    1
    10     4     8    1
    11     4    23    1
    12     4    24    1
    13     5     6    2
    14     5    10    1
    15     6    25    1
    16     7     9    2
    17     7    12    1
    18     8    13    1
    19     8    26    1
    20     8    27    1
    21     9    11    1
    22     9    28    1
    23    10    29    1
    24    10    30    1
    25    10    31    1
    26    11    14    1
    27    11    32    1
    28    11    33    1
    29    12    35    1
    30    12    36    1
    31    12    37    1
    32    13    15    2
    33    13    34    1
    34    14    18    1
    35    14    38    1
    36    14    39    1
    37    15    16    1
    38    15    17    1
    39    16    40    1
    40    16    41    1
    41    16    42    1
    42    17    43    1
    43    17    44    1
    44    17    45    1
    45    18    46    1
