@<TRIPOS>MOLECULE
IMPHY009193
 78 80 0 0 0
SMALL
GASTEIGER

@<TRIPOS>ATOM
      1 O           3.3200    3.0971    0.0000 O.3     1  UNL1       -0.4806
      2 O           2.1462    1.8234    0.0000 O.2     1  UNL1       -0.2510
      3 O          14.6294   -2.3533    0.0000 O.3     1  UNL1       -0.4774
      4 O          13.3467   -3.5172    0.0000 O.2     1  UNL1       -0.2455
      5 C           6.6767   -1.3930    0.0000 C.3     1  UNL1       -0.0156
      6 C           5.6767   -1.3930    0.0000 C.3     1  UNL1       -0.0131
      7 C           6.9857   -0.4419    0.0000 C.3     1  UNL1        0.0044
      8 C           5.3677   -0.4419    0.0000 C.2     1  UNL1       -0.0628
      9 C           4.3523   -0.2097    0.0000 C.3     1  UNL1       -0.0038
     10 C           7.3617   -2.1777    0.0000 C.3     1  UNL1       -0.0457
     11 C           4.9917   -2.1777    0.0000 C.3     1  UNL1       -0.0454
     12 C           3.6493   -0.9783    0.0000 C.3     1  UNL1       -0.0113
     13 C           6.1767    0.1459    0.0000 C.2     1  UNL1       -0.0763
     14 C           8.7040   -0.9783    0.0000 C.3     1  UNL1       -0.0170
     15 C           3.9712   -1.9690    0.0000 C.3     1  UNL1       -0.0452
     16 C           8.0011   -0.2097    0.0000 C.2     1  UNL1       -0.0659
     17 C           8.3822   -1.9690    0.0000 C.3     1  UNL1       -0.0457
     18 C           6.3677   -2.3440    0.0000 C.3     1  UNL1       -0.0582
     19 C           3.6169    0.4680    0.0000 C.3     1  UNL1       -0.0333
     20 C           4.5715    0.7660    0.0000 C.3     1  UNL1       -0.0553
     21 C           9.6814   -0.7667    0.0000 C.3     1  UNL1       -0.0371
     22 C           2.6720   -0.7667    0.0000 C.2     1  UNL1       -0.0758
     23 C           8.2991    0.7449    0.0000 C.2     1  UNL1       -0.0986
     24 C           3.8361    1.4437    0.0000 C.3     1  UNL1        0.0456
     25 C          10.3534   -1.5072    0.0000 C.3     1  UNL1       -0.0465
     26 C           9.9867    0.1856    0.0000 C.3     1  UNL1       -0.0619
     27 C           2.0000   -1.5072    0.0000 C.3     1  UNL1       -0.0437
     28 C           2.3666    0.1856    0.0000 C.2     1  UNL1       -0.0994
     29 C          11.3307   -1.2955    0.0000 C.3     1  UNL1       -0.0337
     30 C           3.1008    2.1214    0.0000 C.2     1  UNL1        0.3047
     31 C          12.0027   -2.0361    0.0000 C.2     1  UNL1       -0.0743
     32 C          12.9800   -1.8244    0.0000 C.2     1  UNL1        0.0294
     33 C          13.2854   -0.8722    0.0000 C.3     1  UNL1       -0.0332
     34 C          13.6520   -2.5650    0.0000 C.2     1  UNL1        0.3322
     35 H           5.9332   -1.9574    0.0000 H       1  UNL1        0.0351
     36 H           7.1099    0.1655    0.0000 H       1  UNL1        0.0394
     37 H           6.8317   -2.4995    0.0000 H       1  UNL1        0.0271
     38 H           7.5880   -2.7549    0.0000 H       1  UNL1        0.0271
     39 H           4.7654   -2.7549    0.0000 H       1  UNL1        0.0271
     40 H           5.5217   -2.4995    0.0000 H       1  UNL1        0.0271
     41 H           3.4612   -0.3876    0.0000 H       1  UNL1        0.0354
     42 H           6.1767    0.7659    0.0000 H       1  UNL1        0.0578
     43 H           9.1198   -1.4383    0.0000 H       1  UNL1        0.0348
     44 H           3.3575   -2.0569    0.0000 H       1  UNL1        0.0271
     45 H           3.9528   -2.5887    0.0000 H       1  UNL1        0.0271
     46 H           8.4006   -2.5887    0.0000 H       1  UNL1        0.0271
     47 H           8.9959   -2.0569    0.0000 H       1  UNL1        0.0271
     48 H           5.7780   -2.1524    0.0000 H       1  UNL1        0.0236
     49 H           6.1761   -2.9337    0.0000 H       1  UNL1        0.0236
     50 H           6.9573   -2.5356    0.0000 H       1  UNL1        0.0236
     51 H           3.0448    0.7069    0.0000 H       1  UNL1        0.0279
     52 H           3.2823   -0.0539    0.0000 H       1  UNL1        0.0279
     53 H           5.1764    0.6301    0.0000 H       1  UNL1        0.0238
     54 H           4.7074    1.3709    0.0000 H       1  UNL1        0.0238
     55 H           3.9666    0.9019    0.0000 H       1  UNL1        0.0238
     56 H          10.2873   -0.6354    0.0000 H       1  UNL1        0.0304
     57 H           8.9040    0.8808    0.0000 H       1  UNL1        0.0535
     58 H           7.8790    1.2008    0.0000 H       1  UNL1        0.0535
     59 H           4.4082    1.2048    0.0000 H       1  UNL1        0.0378
     60 H           4.1707    1.9657    0.0000 H       1  UNL1        0.0378
     61 H           9.8289   -1.8378    0.0000 H       1  UNL1        0.0271
     62 H          10.5878   -2.0812    0.0000 H       1  UNL1        0.0271
     63 H          10.5771   -0.0037    0.0000 H       1  UNL1        0.0233
     64 H          10.1761    0.7760    0.0000 H       1  UNL1        0.0233
     65 H           9.3964    0.3749    0.0000 H       1  UNL1        0.0233
     66 H           1.5408   -1.0906    0.0000 H       1  UNL1        0.0274
     67 H           1.5834   -1.9664    0.0000 H       1  UNL1        0.0274
     68 H           2.4592   -1.9238    0.0000 H       1  UNL1        0.0274
     69 H           2.7833    0.6447    0.0000 H       1  UNL1        0.0534
     70 H           1.7607    0.3168    0.0000 H       1  UNL1        0.0534
     71 H          11.8552   -0.9650    0.0000 H       1  UNL1        0.0308
     72 H          11.0962   -0.7216    0.0000 H       1  UNL1        0.0308
     73 H          11.8134   -2.6265    0.0000 H       1  UNL1        0.0577
     74 H           2.8640    3.5172    0.0000 H       1  UNL1        0.2951
     75 H          13.8758   -1.0615    0.0000 H       1  UNL1        0.0280
     76 H          13.4747   -0.2818    0.0000 H       1  UNL1        0.0280
     77 H          12.6950   -0.6829    0.0000 H       1  UNL1        0.0280
     78 H          15.0460   -2.8124    0.0000 H       1  UNL1        0.2954
@<TRIPOS>BOND
     1     1    30    1
     2     1    74    1
     3     2    30    2
     4     3    34    1
     5     3    78    1
     6     4    34    2
     7     5     6    1
     8     5     7    1
     9     5    10    1
    10     5    18    1
    11     6     8    1
    12     6    11    1
    13     6    35    1
    14     7    13    1
    15     7    16    1
    16     7    36    1
    17     8     9    1
    18     8    13    2
    19     9    12    1
    20     9    19    1
    21     9    20    1
    22    10    17    1
    23    10    37    1
    24    10    38    1
    25    11    15    1
    26    11    39    1
    27    11    40    1
    28    12    15    1
    29    12    22    1
    30    12    41    1
    31    13    42    1
    32    14    16    1
    33    14    17    1
    34    14    21    1
    35    14    43    1
    36    15    44    1
    37    15    45    1
    38    16    23    2
    39    17    46    1
    40    17    47    1
    41    18    48    1
    42    18    49    1
    43    18    50    1
    44    19    24    1
    45    19    51    1
    46    19    52    1
    47    20    53    1
    48    20    54    1
    49    20    55    1
    50    21    25    1
    51    21    26    1
    52    21    56    1
    53    22    27    1
    54    22    28    2
    55    23    57    1
    56    23    58    1
    57    24    30    1
    58    24    59    1
    59    24    60    1
    60    25    29    1
    61    25    61    1
    62    25    62    1
    63    26    63    1
    64    26    64    1
    65    26    65    1
    66    27    66    1
    67    27    67    1
    68    27    68    1
    69    28    69    1
    70    28    70    1
    71    29    31    1
    72    29    71    1
    73    29    72    1
    74    31    32    2
    75    31    73    1
    76    32    33    1
    77    32    34    1
    78    33    75    1
    79    33    76    1
    80    33    77    1
