@<TRIPOS>MOLECULE
IMPHY015757
 30 30 0 0 0
SMALL
GASTEIGER

@<TRIPOS>ATOM
      1 O           3.7320    1.2500    0.0000 O.3     1  UNL1       -0.4641
      2 O           4.5981   -0.2500    0.0000 O.2     1  UNL1       -0.2505
      3 C           4.5981    2.7500    0.0000 C.3     1  UNL1       -0.0123
      4 C           4.5981    1.7500    0.0000 C.3     1  UNL1        0.0948
      5 C           5.4641    3.2500    0.0000 C.3     1  UNL1       -0.0596
      6 C           3.7320    3.2500    0.0000 C.3     1  UNL1       -0.0596
      7 C           2.8660   -0.2500    0.0000 C.3     1  UNL1        0.0700
      8 C           2.8660   -1.2500    0.0000 C.ar    1  UNL1       -0.0368
      9 C           3.7320    0.2500    0.0000 C.2     1  UNL1        0.3115
     10 C           2.0000   -1.7500    0.0000 C.ar    1  UNL1       -0.0581
     11 C           3.7320   -1.7500    0.0000 C.ar    1  UNL1       -0.0581
     12 C           2.0000   -2.7500    0.0000 C.ar    1  UNL1       -0.0615
     13 C           3.7320   -2.7500    0.0000 C.ar    1  UNL1       -0.0615
     14 C           2.8660   -3.2500    0.0000 C.ar    1  UNL1       -0.0617
     15 H           4.5981    3.3700    0.0000 H       1  UNL1        0.0328
     16 H           4.8101    1.1674    0.0000 H       1  UNL1        0.0700
     17 H           5.2087    1.8577    0.0000 H       1  UNL1        0.0700
     18 H           5.7741    2.7131    0.0000 H       1  UNL1        0.0233
     19 H           6.0010    3.5600    0.0000 H       1  UNL1        0.0233
     20 H           5.1541    3.7869    0.0000 H       1  UNL1        0.0233
     21 H           4.0420    3.7869    0.0000 H       1  UNL1        0.0233
     22 H           3.1951    3.5600    0.0000 H       1  UNL1        0.0233
     23 H           3.4220    2.7131    0.0000 H       1  UNL1        0.0233
     24 H           2.6540    0.3326    0.0000 H       1  UNL1        0.0426
     25 H           2.2554   -0.3577    0.0000 H       1  UNL1        0.0426
     26 H           1.4631   -1.4400    0.0000 H       1  UNL1        0.0620
     27 H           4.2690   -1.4400    0.0000 H       1  UNL1        0.0620
     28 H           1.4631   -3.0600    0.0000 H       1  UNL1        0.0618
     29 H           4.2690   -3.0600    0.0000 H       1  UNL1        0.0618
     30 H           2.8660   -3.8700    0.0000 H       1  UNL1        0.0618
@<TRIPOS>BOND
     1     1     4    1
     2     1     9    1
     3     2     9    2
     4     3     4    1
     5     3     5    1
     6     3     6    1
     7     3    15    1
     8     4    16    1
     9     4    17    1
    10     5    18    1
    11     5    19    1
    12     5    20    1
    13     6    21    1
    14     6    22    1
    15     6    23    1
    16     7     8    1
    17     7     9    1
    18     7    24    1
    19     7    25    1
    20     8    10   ar
    21     8    11   ar
    22    10    12   ar
    23    10    26    1
    24    11    13   ar
    25    11    27    1
    26    12    14   ar
    27    12    28    1
    28    13    14   ar
    29    13    29    1
    30    14    30    1
