@<TRIPOS>MOLECULE
IMPHY011447
 86 93 0 0 0
SMALL
GASTEIGER

@<TRIPOS>ATOM
      1 O           6.7281    4.7939    0.0000 O.3     1  UNL1       -0.3591
      2 O           6.3861    3.0050    0.0000 O.3     1  UNL1       -0.3145
      3 O           5.5000    2.5205    0.0000 O.3     1  UNL1       -0.3155
      4 O           5.6060    0.9440    0.0000 O.3     1  UNL1       -0.3052
      5 O           7.5337   -0.1738    0.0000 O.3     1  UNL1       -0.4546
      6 O           9.5633    4.8376    0.0000 O.3     1  UNL1       -0.3773
      7 O           9.1512    5.5455    0.0000 O.3     1  UNL1       -0.3854
      8 O           7.9755    6.3572    0.0000 O.3     1  UNL1       -0.3920
      9 O          10.8455    4.8068    0.0000 O.2     1  UNL1       -0.2892
     10 O           9.2604   -0.0377    0.0000 O.2     1  UNL1       -0.2456
     11 C           7.3164    2.8877    0.0000 C.3     1  UNL1        0.0480
     12 C           8.2173    2.4538    0.0000 C.3     1  UNL1        0.0985
     13 C           7.0938    3.8627    0.0000 C.3     1  UNL1        0.1013
     14 C           7.7173    4.6445    0.0000 C.3     1  UNL1        0.1479
     15 C           6.4468    2.3143    0.0000 C.3     1  UNL1        0.1089
     16 C           9.1183    2.8877    0.0000 C.3     1  UNL1        0.0465
     17 C           8.3112    1.4165    0.0000 C.3     1  UNL1        0.0269
     18 C           6.5166    1.2750    0.0000 C.3     1  UNL1        0.1593
     19 C           9.3408    3.8627    0.0000 C.3     1  UNL1        0.1650
     20 C           8.7173    4.6445    0.0000 C.3     1  UNL1        0.1252
     21 C           7.4551    0.8231    0.0000 C.3     1  UNL1        0.1438
     22 C           4.9932    1.6946    0.0000 C.3     1  UNL1        0.3163
     23 C           8.3408    5.4263    0.0000 C.3     1  UNL1        0.0783
     24 C           9.9730    2.3801    0.0000 C.2     1  UNL1       -0.0687
     25 C           9.2171    0.9930    0.0000 C.3     1  UNL1       -0.0563
     26 C          10.3311    3.9492    0.0000 C.2     1  UNL1        0.1933
     27 C           6.5836    0.2773    0.0000 C.2     1  UNL1       -0.0421
     28 C          10.7210    3.0348    0.0000 C.2     1  UNL1       -0.0085
     29 C           3.9955    1.6276    0.0000 C.ar    1  UNL1        0.0409
     30 C           5.7531   -0.2797    0.0000 C.3     1  UNL1       -0.0411
     31 C           6.6507   -0.7205    0.0000 C.2     1  UNL1       -0.0968
     32 C          11.6960    2.8123    0.0000 C.3     1  UNL1       -0.0366
     33 C           3.4386    2.4582    0.0000 C.ar    1  UNL1       -0.0510
     34 C           3.5547    0.7300    0.0000 C.ar    1  UNL1       -0.0510
     35 C           8.4363   -0.6042    0.0000 C.2     1  UNL1        0.3323
     36 C           2.4408    2.3911    0.0000 C.ar    1  UNL1       -0.0613
     37 C           2.5569    0.6630    0.0000 C.ar    1  UNL1       -0.0613
     38 C           8.5149   -1.6012    0.0000 C.2     1  UNL1        0.0225
     39 C           2.0000    1.4935    0.0000 C.ar    1  UNL1       -0.0617
     40 C           9.4175   -2.0316    0.0000 C.2     1  UNL1       -0.0550
     41 C           9.4961   -3.0285    0.0000 C.2     1  UNL1       -0.0610
     42 C          10.3987   -3.4589    0.0000 C.2     1  UNL1       -0.0546
     43 C          10.4773   -4.4558    0.0000 C.ar    1  UNL1       -0.0250
     44 C           9.6532   -5.0223    0.0000 C.ar    1  UNL1       -0.0546
     45 C          11.3799   -4.8862    0.0000 C.ar    1  UNL1       -0.0546
     46 C           9.7318   -6.0192    0.0000 C.ar    1  UNL1       -0.0612
     47 C          11.4585   -5.8831    0.0000 C.ar    1  UNL1       -0.0612
     48 C          10.6344   -6.4496    0.0000 C.ar    1  UNL1       -0.0617
     49 H           6.7915    3.5564    0.0000 H       1  UNL1        0.0381
     50 H           6.2816    3.6120    0.0000 H       1  UNL1        0.0631
     51 H           5.7904    2.8543    0.0000 H       1  UNL1        0.0636
     52 H           9.0813    2.0385    0.0000 H       1  UNL1        0.0405
     53 H           8.3635    0.7987    0.0000 H       1  UNL1        0.0363
     54 H           8.3875    5.1695    0.0000 H       1  UNL1        0.0657
     55 H           8.0152    0.5573    0.0000 H       1  UNL1        0.0771
     56 H           8.7511    4.9615    0.0000 H       1  UNL1        0.0588
     57 H           8.8699    5.7496    0.0000 H       1  UNL1        0.0588
     58 H          10.0296    1.7627    0.0000 H       1  UNL1        0.0580
     59 H           8.9546    0.4313    0.0000 H       1  UNL1        0.0234
     60 H           9.7788    0.7305    0.0000 H       1  UNL1        0.0234
     61 H           9.4796    1.5547    0.0000 H       1  UNL1        0.0234
     62 H          10.1558    5.0203    0.0000 H       1  UNL1        0.2109
     63 H           8.8020    6.0577    0.0000 H       1  UNL1        0.2100
     64 H           5.4078    0.2353    0.0000 H       1  UNL1        0.0275
     65 H           5.2382   -0.6250    0.0000 H       1  UNL1        0.0275
     66 H           6.0984   -0.7946    0.0000 H       1  UNL1        0.0275
     67 H           7.3624    6.4496    0.0000 H       1  UNL1        0.2095
     68 H           6.1358   -1.0658    0.0000 H       1  UNL1        0.0535
     69 H           7.2072   -0.9938    0.0000 H       1  UNL1        0.0535
     70 H          11.5580    2.2078    0.0000 H       1  UNL1        0.0279
     71 H          12.3004    2.6743    0.0000 H       1  UNL1        0.0279
     72 H          11.8339    3.4167    0.0000 H       1  UNL1        0.0279
     73 H           3.7119    3.0147    0.0000 H       1  UNL1        0.0623
     74 H           3.9000    0.2151    0.0000 H       1  UNL1        0.0623
     75 H           2.0955    2.9061    0.0000 H       1  UNL1        0.0618
     76 H           2.2836    0.1065    0.0000 H       1  UNL1        0.0618
     77 H           8.0040   -1.9524    0.0000 H       1  UNL1        0.0689
     78 H           1.3814    1.4520    0.0000 H       1  UNL1        0.0618
     79 H           9.9284   -1.6803    0.0000 H       1  UNL1        0.0620
     80 H           8.9852   -3.3797    0.0000 H       1  UNL1        0.0618
     81 H          10.9096   -3.1076    0.0000 H       1  UNL1        0.0623
     82 H           9.0936   -4.7554    0.0000 H       1  UNL1        0.0623
     83 H          11.8908   -4.5350    0.0000 H       1  UNL1        0.0623
     84 H           9.2209   -6.3704    0.0000 H       1  UNL1        0.0618
     85 H          12.0181   -6.1500    0.0000 H       1  UNL1        0.0618
     86 H          10.6831   -7.0677    0.0000 H       1  UNL1        0.0618
@<TRIPOS>BOND
     1     1    13    1
     2     1    14    1
     3    12     2    1
     4     2    22    1
     5     3    15    1
     6     3    22    1
     7     4    18    1
     8     4    22    1
     9    21     5    1
    10     5    35    1
    11    19     6    1
    12     6    62    1
    13    20     7    1
    14     7    63    1
    15     8    23    1
    16     8    67    1
    17     9    26    2
    18    10    35    2
    19    11    12    1
    20    11    13    1
    21    11    15    1
    22    11    49    1
    23    12    16    1
    24    12    17    1
    25    13    14    1
    26    13    50    1
    27    14    20    1
    28    14    23    1
    29    15    18    1
    30    15    51    1
    31    16    19    1
    32    16    24    1
    33    16    52    1
    34    17    21    1
    35    17    25    1
    36    17    53    1
    37    18    21    1
    38    18    27    1
    39    19    20    1
    40    19    26    1
    41    20    54    1
    42    21    55    1
    43    22    29    1
    44    23    56    1
    45    23    57    1
    46    24    28    2
    47    24    58    1
    48    25    59    1
    49    25    60    1
    50    25    61    1
    51    26    28    1
    52    27    30    1
    53    27    31    2
    54    28    32    1
    55    29    33   ar
    56    29    34   ar
    57    30    64    1
    58    30    65    1
    59    30    66    1
    60    31    68    1
    61    31    69    1
    62    32    70    1
    63    32    71    1
    64    32    72    1
    65    33    36   ar
    66    33    73    1
    67    34    37   ar
    68    34    74    1
    69    35    38    1
    70    36    39   ar
    71    36    75    1
    72    37    39   ar
    73    37    76    1
    74    38    40    2
    75    38    77    1
    76    39    78    1
    77    40    41    1
    78    40    79    1
    79    41    42    2
    80    41    80    1
    81    42    43    1
    82    42    81    1
    83    43    44   ar
    84    43    45   ar
    85    44    46   ar
    86    44    82    1
    87    45    47   ar
    88    45    83    1
    89    46    48   ar
    90    46    84    1
    91    47    48   ar
    92    47    85    1
    93    48    86    1
