@<TRIPOS>MOLECULE
IMPHY002146
 60 66 0 0 0
SMALL
GASTEIGER

@<TRIPOS>ATOM
      1 O           5.8748    1.0794    0.0000 O.3     1  UNL1       -0.3512
      2 O           3.8693   -2.5508    0.0000 O.3     1  UNL1       -0.3715
      3 O           8.6771    1.6652    0.0000 O.3     1  UNL1       -0.4539
      4 O           5.0673    1.5241    0.0000 O.2     1  UNL1       -0.2883
      5 O           3.3352    0.5241    0.0000 O.2     1  UNL1       -0.2878
      6 O           7.7217    3.2003    0.0000 O.2     1  UNL1       -0.2478
      7 O           2.0000   -1.5009    0.0000 O.2     1  UNL1       -0.2915
      8 O          10.6192   -1.1298    0.0000 O.2     1  UNL1       -0.4706
      9 C           6.8272    0.5588    0.0000 C.3     1  UNL1        0.1287
     10 C           5.9333    0.0241    0.0000 C.3     1  UNL1        0.0699
     11 C           5.9333   -0.9759    0.0000 C.3     1  UNL1       -0.0131
     12 C           7.7333    0.0449    0.0000 C.3     1  UNL1        0.0422
     13 C           5.0673   -1.4759    0.0000 C.3     1  UNL1        0.0388
     14 C           6.8021    1.6435    0.0000 C.3     1  UNL1        0.1861
     15 C           4.2012   -0.9759    0.0000 C.3     1  UNL1        0.1377
     16 C           6.8272   -1.5105    0.0000 C.3     1  UNL1       -0.0476
     17 C           7.7333   -0.9967    0.0000 C.3     1  UNL1       -0.0408
     18 C           5.0673    0.5241    0.0000 C.2     1  UNL1        0.2082
     19 C           8.6771    0.5802    0.0000 C.3     1  UNL1        0.1391
     20 C           3.4642   -1.6430    0.0000 C.3     1  UNL1        0.0847
     21 C           4.8581   -2.4477    0.0000 C.3     1  UNL1        0.0592
     22 C           6.5083    1.0200    0.0000 C.3     1  UNL1       -0.0493
     23 C           4.2012    0.0241    0.0000 C.2     1  UNL1        0.2159
     24 C           8.6032   -0.4484    0.0000 C.3     1  UNL1       -0.0531
     25 C           4.9744   -2.9708    0.0000 C.2     1  UNL1       -0.0706
     26 C           7.7333    2.2004    0.0000 C.2     1  UNL1        0.3398
     27 C           2.9530   -1.8038    0.0000 C.2     1  UNL1        0.1732
     28 C           3.4943   -3.2003    0.0000 C.2     1  UNL1       -0.0213
     29 C           2.7938   -0.9010    0.0000 C.3     1  UNL1       -0.0347
     30 C           2.8778   -2.4530    0.0000 C.3     1  UNL1       -0.0347
     31 C           9.5412    0.0768    0.0000 C.ar    1  UNL1        0.0310
     32 C          10.4563    0.4800    0.0000 C.ar    1  UNL1       -0.0172
     33 C           9.6419   -0.9181    0.0000 C.ar    1  UNL1        0.0984
     34 C          11.1225   -0.2657    0.0000 C.ar    1  UNL1        0.0921
     35 H           5.9267   -1.8259    0.0000 H       1  UNL1        0.0321
     36 H           6.3631    2.3713    0.0000 H       1  UNL1        0.0743
     37 H           6.4226   -1.9803    0.0000 H       1  UNL1        0.0269
     38 H           7.2209   -1.9896    0.0000 H       1  UNL1        0.0269
     39 H           7.9424   -1.5804    0.0000 H       1  UNL1        0.0273
     40 H           8.3442   -0.8906    0.0000 H       1  UNL1        0.0273
     41 H           9.2146    0.8891    0.0000 H       1  UNL1        0.0793
     42 H           4.8572   -3.0677    0.0000 H       1  UNL1        0.0569
     43 H           5.4745   -2.5138    0.0000 H       1  UNL1        0.0569
     44 H           7.0452    0.7100    0.0000 H       1  UNL1        0.0240
     45 H           6.8183    1.5570    0.0000 H       1  UNL1        0.0240
     46 H           5.9714    1.3300    0.0000 H       1  UNL1        0.0240
     47 H           8.2973   -0.9877    0.0000 H       1  UNL1        0.0237
     48 H           9.1425   -0.7542    0.0000 H       1  UNL1        0.0237
     49 H           8.9090    0.0909    0.0000 H       1  UNL1        0.0237
     50 H           5.4325   -3.3886    0.0000 H       1  UNL1        0.0580
     51 H           3.1843   -3.7373    0.0000 H       1  UNL1        0.0650
     52 H           2.3756   -2.0894    0.0000 H       1  UNL1        0.0258
     53 H           3.2538   -0.4853    0.0000 H       1  UNL1        0.0258
     54 H           2.3782   -0.4410    0.0000 H       1  UNL1        0.0258
     55 H           2.5142   -2.9552    0.0000 H       1  UNL1        0.0258
     56 H           3.3800   -2.8166    0.0000 H       1  UNL1        0.0258
     57 H           2.3338   -1.3166    0.0000 H       1  UNL1        0.0258
     58 H          10.5875    1.0860    0.0000 H       1  UNL1        0.0653
     59 H           9.1795   -1.3312    0.0000 H       1  UNL1        0.1033
     60 H          11.7394   -0.2032    0.0000 H       1  UNL1        0.1029
@<TRIPOS>BOND
     1     9     1    1
     2     1    14    1
     3     2    20    1
     4     2    21    1
     5     3    19    1
     6     3    26    1
     7     4    18    2
     8     5    23    2
     9     6    26    2
    10     7    27    2
    11     8    33   ar
    12     8    34   ar
    13     9    10    1
    14     9    12    1
    15     9    14    1
    16    10    11    1
    17    10    18    1
    18    10    22    1
    19    11    13    1
    20    11    16    1
    21    11    35    1
    22    12    17    1
    23    12    19    1
    24    12    24    1
    25    13    15    1
    26    13    21    1
    27    13    25    1
    28    14    26    1
    29    14    36    1
    30    15    20    1
    31    15    23    1
    32    15    27    1
    33    16    17    1
    34    16    37    1
    35    16    38    1
    36    17    39    1
    37    17    40    1
    38    18    23    1
    39    19    31    1
    40    19    41    1
    41    20    29    1
    42    20    30    1
    43    21    42    1
    44    21    43    1
    45    22    44    1
    46    22    45    1
    47    22    46    1
    48    24    47    1
    49    24    48    1
    50    24    49    1
    51    25    28    2
    52    25    50    1
    53    27    28    1
    54    28    51    1
    55    29    53    1
    56    29    54    1
    57    29    57    1
    58    30    52    1
    59    30    55    1
    60    30    56    1
    61    31    32   ar
    62    31    33   ar
    63    32    34   ar
    64    32    58    1
    65    33    59    1
    66    34    60    1
