@<TRIPOS>MOLECULE
IMPHY002335
 25 28 0 0 0
SMALL
GASTEIGER

@<TRIPOS>ATOM
      1 C        2467.4600 2588.9300    0.0000 C.3     1  UNL1        0.0336
      2 C        2480.4600 2551.1400    0.0000 C.3     1  UNL1        0.1344
      3 O        2441.0800 2544.1900    0.0000 O.3     1  UNL1       -0.2250
      4 C        2480.2600 2511.1600    0.0000 C.3     1  UNL1        0.0577
      5 C        2514.9800 2491.1200    0.0000 C.3     1  UNL1        0.0490
      6 C        2549.8000 2511.0600    0.0000 C.2     1  UNL1        0.0111
      7 C        2549.8000 2551.1400    0.0000 C.2     1  UNL1       -0.0397
      8 C        2515.1800 2571.1700    0.0000 C.3     1  UNL1        0.0526
      9 C        2584.5100 2571.0700    0.0000 C.3     1  UNL1        0.0598
     10 C        2619.1300 2551.0400    0.0000 C.3     1  UNL1        0.1845
     11 C        2619.1300 2511.0600    0.0000 C.2     1  UNL1        0.1963
     12 O        2647.4000 2482.7900    0.0000 O.2     1  UNL1       -0.2891
     13 C        2658.5100 2544.0900    0.0000 C.3     1  UNL1        0.0413
     14 O        2632.8200 2588.5300    0.0000 O.3     1  UNL1       -0.2175
     15 C        2514.9800 2451.0500    0.0000 C.2     1  UNL1       -0.0399
     16 C        2554.2600 2443.4100    0.0000 C.2     1  UNL1       -0.0088
     17 C        2501.0900 2413.9500    0.0000 C.3     1  UNL1        0.0264
     18 C        2460.8200 2413.9500    0.0000 C.3     1  UNL1        0.0523
     19 C        2445.4400 2451.0500    0.0000 C.3     1  UNL1        0.1878
     20 C        2445.4400 2491.1200    0.0000 C.2     1  UNL1        0.0001
     21 C        2410.8200 2511.1600    0.0000 C.2     1  UNL1        0.0493
     22 C        2410.8200 2551.1400    0.0000 C.3     1  UNL1        0.0373
     23 C        2376.1000 2491.1200    0.0000 C.2     1  UNL1        0.3369
     24 O        2376.1000 2451.0500    0.0000 O.3     1  UNL1       -0.4452
     25 O        2341.4900 2511.1600    0.0000 O.2     1  UNL1       -0.2453
@<TRIPOS>BOND
     1     2     1    1
     2     2     3    1
     3     2     4    1
     4     2     8    1
     5     4     5    1
     6     4    20    1
     7     5     6    1
     8     5    15    1
     9     6    11    1
    10     7     6    2
    11     7     9    1
    12     8     7    1
    13     9    10    1
    14    10    13    1
    15    10    14    1
    16    11    10    1
    17    11    12    2
    18    15    16    2
    19    15    17    1
    20    17    18    1
    21    19    18    1
    22    19    24    1
    23    20    19    1
    24    20    21    2
    25    21    22    1
    26    21    23    1
    27    23    25    2
    28    24    23    1
