@<TRIPOS>MOLECULE
IMPHY016528
 39 41 0 0 0
SMALL
GASTEIGER

@<TRIPOS>ATOM
      1 C           3.6180   -0.2966    0.0000 C.3     1  UNL1       -0.0119
      2 C           4.4271    0.2912    0.0000 C.3     1  UNL1       -0.0217
      3 C           2.8090    0.2912    0.0000 C.3     1  UNL1       -0.0049
      4 C           3.3084   -1.2412    0.0000 C.3     1  UNL1       -0.0369
      5 C           3.9277   -1.2412    0.0000 C.3     1  UNL1       -0.0458
      6 C           4.1180    1.2422    0.0000 C.3     1  UNL1       -0.0255
      7 C           2.0063   -0.2952    0.0000 C.3     1  UNL1       -0.0431
      8 C           5.2298   -0.2952    0.0000 C.3     1  UNL1       -0.0468
      9 C           3.1180    1.2422    0.0000 C.2     1  UNL1       -0.0696
     10 C           2.3143   -1.2404    0.0000 C.3     1  UNL1       -0.0491
     11 C           4.9218   -1.2404    0.0000 C.3     1  UNL1       -0.0520
     12 C           5.2361    0.8790    0.0000 C.3     1  UNL1       -0.0587
     13 C           2.0000    0.8790    0.0000 C.3     1  UNL1       -0.0553
     14 C           3.8948   -2.0513    0.0000 C.3     1  UNL1       -0.0619
     15 C           2.5302    2.0513    0.0000 C.2     1  UNL1       -0.0989
     16 H           3.0262   -1.7933    0.0000 H       1  UNL1        0.0304
     17 H           3.3215   -1.3714    0.0000 H       1  UNL1        0.0271
     18 H           3.9934   -1.8577    0.0000 H       1  UNL1        0.0271
     19 H           4.7245    1.3712    0.0000 H       1  UNL1        0.0316
     20 H           4.0532    1.8588    0.0000 H       1  UNL1        0.0316
     21 H           1.6952    0.2411    0.0000 H       1  UNL1        0.0274
     22 H           1.4403   -0.5482    0.0000 H       1  UNL1        0.0274
     23 H           5.7958   -0.5482    0.0000 H       1  UNL1        0.0271
     24 H           5.5408    0.2411    0.0000 H       1  UNL1        0.0271
     25 H           1.7079   -1.3694    0.0000 H       1  UNL1        0.0268
     26 H           2.3789   -1.8570    0.0000 H       1  UNL1        0.0268
     27 H           4.8571   -1.8570    0.0000 H       1  UNL1        0.0266
     28 H           5.5282   -1.3694    0.0000 H       1  UNL1        0.0266
     29 H           5.6005    0.3774    0.0000 H       1  UNL1        0.0235
     30 H           5.7377    1.2434    0.0000 H       1  UNL1        0.0235
     31 H           4.8716    1.3806    0.0000 H       1  UNL1        0.0235
     32 H           2.3644    1.3806    0.0000 H       1  UNL1        0.0238
     33 H           1.4984    1.2434    0.0000 H       1  UNL1        0.0238
     34 H           1.6356    0.3774    0.0000 H       1  UNL1        0.0238
     35 H           3.3926   -2.4148    0.0000 H       1  UNL1        0.0233
     36 H           4.2583   -2.5535    0.0000 H       1  UNL1        0.0233
     37 H           4.3970   -1.6877    0.0000 H       1  UNL1        0.0233
     38 H           2.7824    2.6177    0.0000 H       1  UNL1        0.0535
     39 H           1.9136    1.9864    0.0000 H       1  UNL1        0.0535
@<TRIPOS>BOND
     1     1     2    1
     2     1     3    1
     3     1     4    1
     4     1     5    1
     5     2     6    1
     6     2     8    1
     7     2    12    1
     8     3     7    1
     9     3     9    1
    10     3    13    1
    11     4    10    1
    12     4    14    1
    13     4    16    1
    14     5    11    1
    15     5    17    1
    16     5    18    1
    17     6     9    1
    18     6    19    1
    19     6    20    1
    20     7    10    1
    21     7    21    1
    22     7    22    1
    23     8    11    1
    24     8    23    1
    25     8    24    1
    26     9    15    2
    27    10    25    1
    28    10    26    1
    29    11    27    1
    30    11    28    1
    31    12    29    1
    32    12    30    1
    33    12    31    1
    34    13    32    1
    35    13    33    1
    36    13    34    1
    37    14    35    1
    38    14    36    1
    39    14    37    1
    40    15    38    1
    41    15    39    1
