@<TRIPOS>MOLECULE
IMPHY006525
 51 54 0 0 0
SMALL
GASTEIGER

@<TRIPOS>ATOM
      1 I          10.0043    1.7601    0.0000 I       1  UNL1       -0.0525
      2 O           7.1640    1.9472    0.0000 O.3     1  UNL1       -0.3840
      3 O           3.9271    1.1909    0.0000 O.3     1  UNL1       -0.3791
      4 C           6.5251    0.6909    0.0000 C.3     1  UNL1        0.0058
      5 C           6.5251   -0.3091    0.0000 C.3     1  UNL1       -0.0291
      6 C           5.6591   -0.8091    0.0000 C.3     1  UNL1       -0.0281
      7 C           7.4714    0.9956    0.0000 C.3     1  UNL1        0.0905
      8 C           4.7931   -0.3091    0.0000 C.3     1  UNL1        0.0138
      9 C           5.6591    1.1909    0.0000 C.3     1  UNL1       -0.0174
     10 C           7.4714   -0.6138    0.0000 C.3     1  UNL1       -0.0464
     11 C           4.7931    0.6909    0.0000 C.3     1  UNL1        0.0660
     12 C           8.0550    0.1909    0.0000 C.3     1  UNL1       -0.0196
     13 C           5.6752   -1.8506    0.0000 C.3     1  UNL1       -0.0453
     14 C           6.5251    1.6909    0.0000 C.3     1  UNL1       -0.0563
     15 C           3.8831   -0.8159    0.0000 C.ar    1  UNL1       -0.0384
     16 C           4.7771   -2.3784    0.0000 C.3     1  UNL1       -0.0271
     17 C           8.2814    1.5820    0.0000 C.2     1  UNL1       -0.0464
     18 C           3.8751   -1.8575    0.0000 C.ar    1  UNL1       -0.0438
     19 C           2.9562   -0.2519    0.0000 C.ar    1  UNL1       -0.0580
     20 C           2.9396   -2.4073    0.0000 C.ar    1  UNL1       -0.0583
     21 C           9.1942    1.1737    0.0000 C.2     1  UNL1       -0.0243
     22 C           3.9271    2.1909    0.0000 C.3     1  UNL1        0.0368
     23 C           2.0084   -0.7798    0.0000 C.ar    1  UNL1       -0.0615
     24 C           2.0000   -1.8648    0.0000 C.ar    1  UNL1       -0.0615
     25 H           6.6151   -1.1543    0.0000 H       1  UNL1        0.0310
     26 H           6.3985   -1.2284    0.0000 H       1  UNL1        0.0310
     27 H           4.0603    0.1216    0.0000 H       1  UNL1        0.0377
     28 H           6.0576    1.6659    0.0000 H       1  UNL1        0.0297
     29 H           5.2606    1.6659    0.0000 H       1  UNL1        0.0297
     30 H           7.2203   -1.1807    0.0000 H       1  UNL1        0.0269
     31 H           8.0087   -0.9230    0.0000 H       1  UNL1        0.0269
     32 H           4.7931    1.3109    0.0000 H       1  UNL1        0.0602
     33 H           8.5158   -0.2238    0.0000 H       1  UNL1        0.0296
     34 H           8.5158    0.6056    0.0000 H       1  UNL1        0.0296
     35 H           5.8932   -2.4310    0.0000 H       1  UNL1        0.0271
     36 H           6.2843   -1.7351    0.0000 H       1  UNL1        0.0271
     37 H           7.1451    1.6909    0.0000 H       1  UNL1        0.0236
     38 H           6.5251    2.3109    0.0000 H       1  UNL1        0.0236
     39 H           5.9051    1.6909    0.0000 H       1  UNL1        0.0236
     40 H           4.3798   -2.8543    0.0000 H       1  UNL1        0.0313
     41 H           5.1781   -2.8512    0.0000 H       1  UNL1        0.0313
     42 H           8.2177    2.1987    0.0000 H       1  UNL1        0.0605
     43 H           7.5796    2.4073    0.0000 H       1  UNL1        0.2106
     44 H           2.9682    0.3680    0.0000 H       1  UNL1        0.0620
     45 H           2.9420   -3.0273    0.0000 H       1  UNL1        0.0620
     46 H           9.2580    0.5570    0.0000 H       1  UNL1        0.0683
     47 H           4.5471    2.1909    0.0000 H       1  UNL1        0.0524
     48 H           3.9271    2.8109    0.0000 H       1  UNL1        0.0524
     49 H           3.3071    2.1909    0.0000 H       1  UNL1        0.0524
     50 H           1.4750   -0.4636    0.0000 H       1  UNL1        0.0618
     51 H           1.4619   -2.1727    0.0000 H       1  UNL1        0.0618
@<TRIPOS>BOND
     1     1    21    1
     2     7     2    1
     3     2    43    1
     4    11     3    1
     5     3    22    1
     6     4     5    1
     7     4     7    1
     8     4     9    1
     9     4    14    1
    10     5     6    1
    11     5    10    1
    12     5    25    1
    13     6     8    1
    14     6    13    1
    15     6    26    1
    16     7    12    1
    17     7    17    1
    18     8    11    1
    19     8    15    1
    20     8    27    1
    21     9    11    1
    22     9    28    1
    23     9    29    1
    24    10    12    1
    25    10    30    1
    26    10    31    1
    27    11    32    1
    28    12    33    1
    29    12    34    1
    30    13    16    1
    31    13    35    1
    32    13    36    1
    33    14    37    1
    34    14    38    1
    35    14    39    1
    36    15    18   ar
    37    15    19   ar
    38    16    18    1
    39    16    40    1
    40    16    41    1
    41    17    21    2
    42    17    42    1
    43    18    20   ar
    44    19    23   ar
    45    19    44    1
    46    20    24   ar
    47    20    45    1
    48    21    46    1
    49    22    47    1
    50    22    48    1
    51    22    49    1
    52    23    24   ar
    53    23    50    1
    54    24    51    1
