@<TRIPOS>MOLECULE
IMPHY013822
 18 18 0 0 0
SMALL
GASTEIGER

@<TRIPOS>ATOM
      1 O           2.5369   -0.0600    0.0000 O.3     1  UNL1       -0.5065
      2 N           5.1350    1.4400    0.0000 N.3     1  UNL1       -0.3260
      3 C           4.2690   -0.0600    0.0000 C.ar    1  UNL1        0.0076
      4 C           4.2690    0.9400    0.0000 C.3     1  UNL1        0.0220
      5 C           3.4030   -0.5600    0.0000 C.ar    1  UNL1        0.1212
      6 C           5.1350   -0.5600    0.0000 C.ar    1  UNL1       -0.0539
      7 C           3.4030   -1.5600    0.0000 C.ar    1  UNL1       -0.0199
      8 C           5.1350   -1.5600    0.0000 C.ar    1  UNL1       -0.0612
      9 C           4.2690   -2.0600    0.0000 C.ar    1  UNL1       -0.0583
     10 H           4.0569    1.5226    0.0000 H       1  UNL1        0.0472
     11 H           3.6584    0.8323    0.0000 H       1  UNL1        0.0472
     12 H           5.6720   -0.2500    0.0000 H       1  UNL1        0.0622
     13 H           2.8660   -1.8700    0.0000 H       1  UNL1        0.0654
     14 H           5.6720   -1.8700    0.0000 H       1  UNL1        0.0618
     15 H           4.2690   -2.6800    0.0000 H       1  UNL1        0.0619
     16 H           5.1350    2.0600    0.0000 H       1  UNL1        0.1185
     17 H           5.6720    1.1300    0.0000 H       1  UNL1        0.1185
     18 H           2.0000   -0.3700    0.0000 H       1  UNL1        0.2921
@<TRIPOS>BOND
     1     1     5    1
     2     1    18    1
     3     2     4    1
     4     2    16    1
     5     2    17    1
     6     3     4    1
     7     3     5   ar
     8     3     6   ar
     9     4    10    1
    10     4    11    1
    11     5     7   ar
    12     6     8   ar
    13     6    12    1
    14     7     9   ar
    15     7    13    1
    16     8     9   ar
    17     8    14    1
    18     9    15    1
