@<TRIPOS>MOLECULE
IMPHY004921
 55 55 0 0 0
SMALL
GASTEIGER

@<TRIPOS>ATOM
      1 O           6.0010    0.0000    0.0000 O.3     1  UNL1       -0.5064
      2 O           2.5369    0.0000    0.0000 O.3     1  UNL1       -0.5064
      3 C           3.4030   -3.5000    0.0000 C.3     1  UNL1       -0.0491
      4 C           4.2690   -3.0000    0.0000 C.3     1  UNL1       -0.0275
      5 C           3.4030   -4.5000    0.0000 C.3     1  UNL1       -0.0530
      6 C           4.2690   -2.0000    0.0000 C.ar    1  UNL1       -0.0405
      7 C           2.5369   -5.0000    0.0000 C.3     1  UNL1       -0.0559
      8 C           4.2690    0.0000    0.0000 C.ar    1  UNL1        0.0391
      9 C           4.2690    1.0000    0.0000 C.3     1  UNL1       -0.0023
     10 C           5.1350   -1.5000    0.0000 C.ar    1  UNL1       -0.0165
     11 C           3.4030   -1.5000    0.0000 C.ar    1  UNL1       -0.0165
     12 C           5.1350   -0.5000    0.0000 C.ar    1  UNL1        0.1240
     13 C           3.4030   -0.5000    0.0000 C.ar    1  UNL1        0.1240
     14 C           5.1350    2.5000    0.0000 C.2     1  UNL1       -0.0759
     15 C           6.0010    3.0000    0.0000 C.3     1  UNL1       -0.0286
     16 C           5.1350    1.5000    0.0000 C.2     1  UNL1       -0.0805
     17 C           6.0010    4.0000    0.0000 C.3     1  UNL1       -0.0308
     18 C           2.5369   -6.0000    0.0000 C.3     1  UNL1       -0.0653
     19 C           4.2690    3.0000    0.0000 C.3     1  UNL1       -0.0438
     20 C           6.8671    4.5000    0.0000 C.2     1  UNL1       -0.0850
     21 C           6.8671    5.5000    0.0000 C.2     1  UNL1       -0.0796
     22 C           7.7331    6.0000    0.0000 C.3     1  UNL1       -0.0440
     23 C           6.0010    6.0000    0.0000 C.3     1  UNL1       -0.0440
     24 H           3.1909   -2.9174    0.0000 H       1  UNL1        0.0268
     25 H           2.7924   -3.6077    0.0000 H       1  UNL1        0.0268
     26 H           4.4810   -3.5826    0.0000 H       1  UNL1        0.0313
     27 H           4.8796   -2.8923    0.0000 H       1  UNL1        0.0313
     28 H           3.6150   -5.0826    0.0000 H       1  UNL1        0.0265
     29 H           4.0135   -4.3923    0.0000 H       1  UNL1        0.0265
     30 H           2.3249   -4.4174    0.0000 H       1  UNL1        0.0263
     31 H           1.9264   -5.1077    0.0000 H       1  UNL1        0.0263
     32 H           4.0569    1.5826    0.0000 H       1  UNL1        0.0358
     33 H           3.6584    0.8923    0.0000 H       1  UNL1        0.0358
     34 H           5.6720   -1.8100    0.0000 H       1  UNL1        0.0657
     35 H           2.8660   -1.8100    0.0000 H       1  UNL1        0.0657
     36 H           6.2131    2.4174    0.0000 H       1  UNL1        0.0313
     37 H           6.6116    3.1077    0.0000 H       1  UNL1        0.0313
     38 H           5.6720    1.1900    0.0000 H       1  UNL1        0.0575
     39 H           5.7890    4.5826    0.0000 H       1  UNL1        0.0310
     40 H           5.3905    3.8923    0.0000 H       1  UNL1        0.0310
     41 H           1.9169   -6.0000    0.0000 H       1  UNL1        0.0230
     42 H           2.5369   -6.6200    0.0000 H       1  UNL1        0.0230
     43 H           3.1569   -6.0000    0.0000 H       1  UNL1        0.0230
     44 H           4.5790    3.5369    0.0000 H       1  UNL1        0.0274
     45 H           3.7320    3.3100    0.0000 H       1  UNL1        0.0274
     46 H           3.9590    2.4631    0.0000 H       1  UNL1        0.0274
     47 H           7.4040    4.1900    0.0000 H       1  UNL1        0.0572
     48 H           6.5380   -0.3100    0.0000 H       1  UNL1        0.2921
     49 H           2.0000   -0.3100    0.0000 H       1  UNL1        0.2921
     50 H           8.0431    5.4631    0.0000 H       1  UNL1        0.0274
     51 H           8.2700    6.3100    0.0000 H       1  UNL1        0.0274
     52 H           7.4231    6.5369    0.0000 H       1  UNL1        0.0274
     53 H           6.3110    6.5369    0.0000 H       1  UNL1        0.0274
     54 H           5.4641    6.3100    0.0000 H       1  UNL1        0.0274
     55 H           5.6910    5.4631    0.0000 H       1  UNL1        0.0274
@<TRIPOS>BOND
     1     1    12    1
     2     1    48    1
     3     2    13    1
     4     2    49    1
     5     3     4    1
     6     3     5    1
     7     3    24    1
     8     3    25    1
     9     4     6    1
    10     4    26    1
    11     4    27    1
    12     5     7    1
    13     5    28    1
    14     5    29    1
    15     6    10   ar
    16     6    11   ar
    17     7    18    1
    18     7    30    1
    19     7    31    1
    20     8     9    1
    21     8    12   ar
    22     8    13   ar
    23     9    16    1
    24     9    32    1
    25     9    33    1
    26    10    12   ar
    27    10    34    1
    28    11    13   ar
    29    11    35    1
    30    14    15    1
    31    14    16    2
    32    14    19    1
    33    15    17    1
    34    15    36    1
    35    15    37    1
    36    16    38    1
    37    17    20    1
    38    17    39    1
    39    17    40    1
    40    18    41    1
    41    18    42    1
    42    18    43    1
    43    19    44    1
    44    19    45    1
    45    19    46    1
    46    20    21    2
    47    20    47    1
    48    21    22    1
    49    21    23    1
    50    22    50    1
    51    22    51    1
    52    22    52    1
    53    23    53    1
    54    23    54    1
    55    23    55    1
