@<TRIPOS>MOLECULE
IMPHY005495
 30 30 0 0 0
SMALL
GASTEIGER

@<TRIPOS>ATOM
      1 C           5.1350   -0.8100    0.0000 C.3     1  UNL1       -0.0308
      2 C           5.1350    1.1900    0.0000 C.3     1  UNL1       -0.0286
      3 C           4.2690   -0.3100    0.0000 C.3     1  UNL1       -0.0283
      4 C           6.0010    0.6900    0.0000 C.2     1  UNL1       -0.0762
      5 C           4.2690    0.6900    0.0000 C.3     1  UNL1       -0.0308
      6 C           6.0010   -0.3100    0.0000 C.2     1  UNL1       -0.0847
      7 C           3.4030   -0.8100    0.0000 C.2     1  UNL1       -0.0723
      8 C           6.8671    1.1900    0.0000 C.3     1  UNL1       -0.0438
      9 C           3.4030    1.1900    0.0000 C.2     1  UNL1       -0.0837
     10 C           2.5369   -0.3100    0.0000 C.2     1  UNL1       -0.0631
     11 C           2.5369    0.6900    0.0000 C.2     1  UNL1       -0.0657
     12 C           3.4030   -1.8100    0.0000 C.3     1  UNL1       -0.0435
     13 H           4.7365   -1.2850    0.0000 H       1  UNL1        0.0310
     14 H           5.5335   -1.2850    0.0000 H       1  UNL1        0.0310
     15 H           5.5335    1.6650    0.0000 H       1  UNL1        0.0313
     16 H           4.7365    1.6650    0.0000 H       1  UNL1        0.0313
     17 H           4.6675    0.1649    0.0000 H       1  UNL1        0.0313
     18 H           3.8705    0.1649    0.0000 H       1  UNL1        0.0313
     19 H           3.8705    0.2151    0.0000 H       1  UNL1        0.0310
     20 H           4.6675    0.2151    0.0000 H       1  UNL1        0.0310
     21 H           6.5380   -0.6200    0.0000 H       1  UNL1        0.0572
     22 H           7.1771    0.6531    0.0000 H       1  UNL1        0.0274
     23 H           7.4040    1.5000    0.0000 H       1  UNL1        0.0274
     24 H           6.5571    1.7269    0.0000 H       1  UNL1        0.0274
     25 H           3.4030    1.8100    0.0000 H       1  UNL1        0.0572
     26 H           2.0000   -0.6200    0.0000 H       1  UNL1        0.0617
     27 H           2.0000    1.0000    0.0000 H       1  UNL1        0.0614
     28 H           2.7830   -1.8100    0.0000 H       1  UNL1        0.0274
     29 H           3.4030   -2.4300    0.0000 H       1  UNL1        0.0274
     30 H           4.0230   -1.8100    0.0000 H       1  UNL1        0.0274
@<TRIPOS>BOND
     1     1     3    1
     2     1     6    1
     3     1    13    1
     4     1    14    1
     5     2     4    1
     6     2     5    1
     7     2    15    1
     8     2    16    1
     9     3     7    1
    10     3    17    1
    11     3    18    1
    12     4     6    2
    13     4     8    1
    14     5     9    1
    15     5    19    1
    16     5    20    1
    17     6    21    1
    18     7    10    2
    19     7    12    1
    20     8    22    1
    21     8    23    1
    22     8    24    1
    23     9    11    2
    24     9    25    1
    25    10    11    1
    26    10    26    1
    27    11    27    1
    28    12    28    1
    29    12    29    1
    30    12    30    1
