@<TRIPOS>MOLECULE
IMPHY017857
 34 34 0 0 0
SMALL
GASTEIGER

@<TRIPOS>ATOM
      1 O           3.6942   -0.1785    0.0000 O.3     1  UNL1       -0.4642
      2 O           2.5352    1.1087    0.0000 O.2     1  UNL1       -0.2512
      3 C           6.1974    0.7694    0.0000 C.3     1  UNL1       -0.0193
      4 C           7.0064    0.1816    0.0000 C.3     1  UNL1       -0.0172
      5 C           5.3884    0.1816    0.0000 C.3     1  UNL1        0.0173
      6 C           6.6974   -0.7694    0.0000 C.2     1  UNL1       -0.0728
      7 C           5.6974   -0.7694    0.0000 C.2     1  UNL1       -0.0779
      8 C           6.7852    1.5784    0.0000 C.3     1  UNL1       -0.0586
      9 C           5.6096    1.5784    0.0000 C.3     1  UNL1       -0.0586
     10 C           4.4374    0.4907    0.0000 C.3     1  UNL1        0.0992
     11 C           7.9575    0.4907    0.0000 C.3     1  UNL1       -0.0582
     12 C           7.2852   -1.5784    0.0000 C.3     1  UNL1       -0.0435
     13 C           2.7431    0.1305    0.0000 C.2     1  UNL1        0.3040
     14 C           2.0000   -0.5386    0.0000 C.3     1  UNL1        0.0332
     15 H           7.4448   -0.2568    0.0000 H       1  UNL1        0.0348
     16 H           4.9500   -0.2568    0.0000 H       1  UNL1        0.0381
     17 H           5.3330   -1.2710    0.0000 H       1  UNL1        0.0576
     18 H           7.2868    1.2140    0.0000 H       1  UNL1        0.0235
     19 H           7.1496    2.0800    0.0000 H       1  UNL1        0.0235
     20 H           6.2836    1.9429    0.0000 H       1  UNL1        0.0235
     21 H           6.1112    1.9429    0.0000 H       1  UNL1        0.0235
     22 H           5.2452    2.0800    0.0000 H       1  UNL1        0.0235
     23 H           5.1080    1.2140    0.0000 H       1  UNL1        0.0235
     24 H           4.7284    1.0381    0.0000 H       1  UNL1        0.0703
     25 H           3.9488    0.8724    0.0000 H       1  UNL1        0.0703
     26 H           8.1491   -0.0990    0.0000 H       1  UNL1        0.0236
     27 H           8.5472    0.6822    0.0000 H       1  UNL1        0.0236
     28 H           7.7659    1.0803    0.0000 H       1  UNL1        0.0236
     29 H           6.7836   -1.9429    0.0000 H       1  UNL1        0.0274
     30 H           7.6496   -2.0800    0.0000 H       1  UNL1        0.0274
     31 H           7.7868   -1.2140    0.0000 H       1  UNL1        0.0274
     32 H           1.5851   -0.0778    0.0000 H       1  UNL1        0.0342
     33 H           1.5392   -0.9535    0.0000 H       1  UNL1        0.0342
     34 H           2.4149   -0.9993    0.0000 H       1  UNL1        0.0342
@<TRIPOS>BOND
     1     1    10    1
     2     1    13    1
     3     2    13    2
     4     3     4    1
     5     3     5    1
     6     3     8    1
     7     3     9    1
     8     4     6    1
     9     4    11    1
    10     4    15    1
    11     5     7    1
    12     5    10    1
    13     5    16    1
    14     6     7    2
    15     6    12    1
    16     7    17    1
    17     8    18    1
    18     8    19    1
    19     8    20    1
    20     9    21    1
    21     9    22    1
    22     9    23    1
    23    10    24    1
    24    10    25    1
    25    11    26    1
    26    11    27    1
    27    11    28    1
    28    12    29    1
    29    12    30    1
    30    12    31    1
    31    13    14    1
    32    14    32    1
    33    14    33    1
    34    14    34    1
