@<TRIPOS>MOLECULE
IMPHY009396
 40 42 0 0 0
SMALL
GASTEIGER

@<TRIPOS>ATOM
      1 O           2.0000   -0.1296    0.0000 O.3     1  UNL1       -0.4568
      2 O           4.3958   -2.1296    0.0000 O.3     1  UNL1       -0.3874
      3 O           2.2729    1.6256    0.0000 O.2     1  UNL1       -0.2453
      4 C           5.2619    0.3704    0.0000 C.3     1  UNL1       -0.0236
      5 C           4.3958    0.8704    0.0000 C.3     1  UNL1        0.0033
      6 C           6.1719    0.8772    0.0000 C.3     1  UNL1       -0.0312
      7 C           4.3798    1.9119    0.0000 C.3     1  UNL1       -0.0431
      8 C           5.2619   -0.6296    0.0000 C.3     1  UNL1       -0.0187
      9 C           6.1799    1.9188    0.0000 C.3     1  UNL1       -0.0476
     10 C           3.5298    0.3704    0.0000 C.2     1  UNL1        0.0476
     11 C           5.2778    2.4396    0.0000 C.3     1  UNL1       -0.0518
     12 C           4.3958   -1.1296    0.0000 C.3     1  UNL1        0.0804
     13 C           3.5298   -0.6296    0.0000 C.2     1  UNL1        0.0060
     14 C           3.5298    1.3704    0.0000 C.3     1  UNL1       -0.0550
     15 C           7.1718    0.8657    0.0000 C.3     1  UNL1       -0.0595
     16 C           6.6618    0.0055    0.0000 C.3     1  UNL1       -0.0595
     17 C           2.5836   -0.9344    0.0000 C.3     1  UNL1        0.1170
     18 C           2.5836    0.6751    0.0000 C.2     1  UNL1        0.3361
     19 H           5.9947   -0.0603    0.0000 H       1  UNL1        0.0315
     20 H           4.1618    2.4923    0.0000 H       1  UNL1        0.0274
     21 H           3.7706    1.7964    0.0000 H       1  UNL1        0.0274
     22 H           5.4739   -1.2122    0.0000 H       1  UNL1        0.0296
     23 H           5.8725   -0.5220    0.0000 H       1  UNL1        0.0296
     24 H           6.7899    1.8080    0.0000 H       1  UNL1        0.0271
     25 H           6.3935    2.5009    0.0000 H       1  UNL1        0.0271
     26 H           5.6751    2.9156    0.0000 H       1  UNL1        0.0266
     27 H           4.8769    2.9125    0.0000 H       1  UNL1        0.0266
     28 H           4.9328   -1.4396    0.0000 H       1  UNL1        0.0642
     29 H           3.8398    1.9073    0.0000 H       1  UNL1        0.0238
     30 H           2.9929    1.6804    0.0000 H       1  UNL1        0.0238
     31 H           3.2198    0.8334    0.0000 H       1  UNL1        0.0238
     32 H           7.1646    0.2457    0.0000 H       1  UNL1        0.0235
     33 H           7.7918    0.8585    0.0000 H       1  UNL1        0.0235
     34 H           7.1790    1.4856    0.0000 H       1  UNL1        0.0235
     35 H           6.1213   -0.2983    0.0000 H       1  UNL1        0.0235
     36 H           6.9656   -0.5350    0.0000 H       1  UNL1        0.0235
     37 H           7.2023    0.3092    0.0000 H       1  UNL1        0.0235
     38 H           2.0462   -1.2436    0.0000 H       1  UNL1        0.0746
     39 H           2.8346   -1.5013    0.0000 H       1  UNL1        0.0746
     40 H           4.9328   -2.4396    0.0000 H       1  UNL1        0.2102
@<TRIPOS>BOND
     1     1    17    1
     2     1    18    1
     3    12     2    1
     4     2    40    1
     5     3    18    2
     6     4     5    1
     7     4     6    1
     8     4     8    1
     9     4    19    1
    10     5     7    1
    11     5    10    1
    12     5    14    1
    13     6     9    1
    14     6    15    1
    15     6    16    1
    16     7    11    1
    17     7    20    1
    18     7    21    1
    19     8    12    1
    20     8    22    1
    21     8    23    1
    22     9    11    1
    23     9    24    1
    24     9    25    1
    25    10    13    2
    26    10    18    1
    27    11    26    1
    28    11    27    1
    29    12    13    1
    30    12    28    1
    31    13    17    1
    32    14    29    1
    33    14    30    1
    34    14    31    1
    35    15    32    1
    36    15    33    1
    37    15    34    1
    38    16    35    1
    39    16    36    1
    40    16    37    1
    41    17    38    1
    42    17    39    1
