@<TRIPOS>MOLECULE
IMPHY016463
 32 32 0 0 0
SMALL
GASTEIGER

@<TRIPOS>ATOM
      1 O           3.7320   -0.8100    0.0000 O.3     1  UNL1       -0.3752
      2 O           6.3301    3.6900    0.0000 O.3     1  UNL1       -0.3950
      3 C           4.5981    1.6900    0.0000 C.3     1  UNL1       -0.0489
      4 C           4.5981    0.6900    0.0000 C.3     1  UNL1       -0.0294
      5 C           5.4641    2.1900    0.0000 C.3     1  UNL1       -0.0296
      6 C           3.7320    0.1900    0.0000 C.3     1  UNL1        0.0481
      7 C           5.4641    3.1900    0.0000 C.3     1  UNL1        0.0442
      8 C           2.8660   -1.3100    0.0000 C.3     1  UNL1        0.0727
      9 C           2.8660   -2.3100    0.0000 C.ar    1  UNL1       -0.0219
     10 C           2.0000   -2.8100    0.0000 C.ar    1  UNL1       -0.0564
     11 C           3.7320   -2.8100    0.0000 C.ar    1  UNL1       -0.0564
     12 C           2.0000   -3.8100    0.0000 C.ar    1  UNL1       -0.0614
     13 C           3.7320   -3.8100    0.0000 C.ar    1  UNL1       -0.0614
     14 C           2.8660   -4.3100    0.0000 C.ar    1  UNL1       -0.0617
     15 H           4.3860    2.2726    0.0000 H       1  UNL1        0.0267
     16 H           3.9875    1.5823    0.0000 H       1  UNL1        0.0267
     17 H           4.8101    0.1074    0.0000 H       1  UNL1        0.0287
     18 H           5.2087    0.7977    0.0000 H       1  UNL1        0.0287
     19 H           5.6762    1.6074    0.0000 H       1  UNL1        0.0287
     20 H           6.0747    2.2977    0.0000 H       1  UNL1        0.0287
     21 H           3.5200    0.7726    0.0000 H       1  UNL1        0.0560
     22 H           3.1215    0.0823    0.0000 H       1  UNL1        0.0560
     23 H           5.2520    3.7726    0.0000 H       1  UNL1        0.0557
     24 H           4.8535    3.0823    0.0000 H       1  UNL1        0.0557
     25 H           2.6540   -0.7274    0.0000 H       1  UNL1        0.0610
     26 H           2.2554   -1.4177    0.0000 H       1  UNL1        0.0610
     27 H           1.4631   -2.5000    0.0000 H       1  UNL1        0.0621
     28 H           4.2690   -2.5000    0.0000 H       1  UNL1        0.0621
     29 H           6.3301    4.3100    0.0000 H       1  UNL1        0.2094
     30 H           1.4631   -4.1200    0.0000 H       1  UNL1        0.0618
     31 H           4.2690   -4.1200    0.0000 H       1  UNL1        0.0618
     32 H           2.8660   -4.9300    0.0000 H       1  UNL1        0.0618
@<TRIPOS>BOND
     1     1     6    1
     2     1     8    1
     3     2     7    1
     4     2    29    1
     5     3     4    1
     6     3     5    1
     7     3    15    1
     8     3    16    1
     9     4     6    1
    10     4    17    1
    11     4    18    1
    12     5     7    1
    13     5    19    1
    14     5    20    1
    15     6    21    1
    16     6    22    1
    17     7    23    1
    18     7    24    1
    19     8     9    1
    20     8    25    1
    21     8    26    1
    22     9    10   ar
    23     9    11   ar
    24    10    12   ar
    25    10    27    1
    26    11    13   ar
    27    11    28    1
    28    12    14   ar
    29    12    30    1
    30    13    14   ar
    31    13    31    1
    32    14    32    1
