@<TRIPOS>MOLECULE
IMPHY007986
 55 58 0 0 0
SMALL
GASTEIGER

@<TRIPOS>ATOM
      1 O          10.4366    1.3006    0.0000 O.3     1  UNL1       -0.4811
      2 O           6.9006    1.3284    0.0000 O.2     1  UNL1       -0.4613
      3 O           8.6605   -1.7063    0.0000 O.3     1  UNL1       -0.5055
      4 O           9.5266   -2.2063    0.0000 O.3     1  UNL1       -0.3872
      5 O           6.9121   -1.7409    0.0000 O.2     1  UNL1       -0.2863
      6 O           2.5381   -2.2404    0.0000 O.3     1  UNL1       -0.5068
      7 C          10.4446    2.3422    0.0000 C.3     1  UNL1        0.1235
      8 C           9.5266    0.7937    0.0000 C.ar    1  UNL1        0.1391
      9 C           9.5266   -0.2063    0.0000 C.ar    1  UNL1        0.0399
     10 C           8.6605    1.2937    0.0000 C.ar    1  UNL1        0.0599
     11 C          10.3926   -0.7063    0.0000 C.3     1  UNL1        0.0093
     12 C           7.7945    0.7937    0.0000 C.ar    1  UNL1        0.1526
     13 C           7.7945   -0.2063    0.0000 C.ar    1  UNL1        0.1069
     14 C           8.6605   -0.7063    0.0000 C.ar    1  UNL1        0.1380
     15 C           9.5425    2.8630    0.0000 C.2     1  UNL1       -0.0408
     16 C           8.6445    2.3352    0.0000 C.2     1  UNL1       -0.0478
     17 C          10.3926   -1.7063    0.0000 C.3     1  UNL1        0.0799
     18 C          10.9479    3.2063    0.0000 C.3     1  UNL1       -0.0215
     19 C          11.4446    2.3383    0.0000 C.3     1  UNL1       -0.0215
     20 C           6.9006   -0.7409    0.0000 C.ar    1  UNL1        0.2037
     21 C           5.9945   -0.2271    0.0000 C.ar    1  UNL1        0.0644
     22 C          11.2586   -2.2063    0.0000 C.2     1  UNL1       -0.0513
     23 C           5.9945    0.8145    0.0000 C.ar    1  UNL1        0.1039
     24 C           5.1304   -0.7304    0.0000 C.ar    1  UNL1       -0.0110
     25 C          11.2586   -3.2063    0.0000 C.3     1  UNL1       -0.0416
     26 C          12.1246   -1.7063    0.0000 C.2     1  UNL1       -0.0973
     27 C           4.2625   -0.2338    0.0000 C.ar    1  UNL1       -0.0504
     28 C           5.1343   -1.7304    0.0000 C.ar    1  UNL1       -0.0504
     29 C           3.3984   -0.7371    0.0000 C.ar    1  UNL1       -0.0196
     30 C           4.2702   -2.2338    0.0000 C.ar    1  UNL1       -0.0196
     31 C           3.4022   -1.7371    0.0000 C.ar    1  UNL1        0.1169
     32 H          11.0032   -0.8139    0.0000 H       1  UNL1        0.0344
     33 H          10.6046   -0.1237    0.0000 H       1  UNL1        0.0344
     34 H           9.5401    3.4830    0.0000 H       1  UNL1        0.0611
     35 H           8.1040    2.6390    0.0000 H       1  UNL1        0.0624
     36 H           9.8556   -1.3963    0.0000 H       1  UNL1        0.0643
     37 H          11.4837    2.8942    0.0000 H       1  UNL1        0.0271
     38 H          11.2600    3.7420    0.0000 H       1  UNL1        0.0271
     39 H          10.4122    3.5183    0.0000 H       1  UNL1        0.0271
     40 H          11.4422    1.7183    0.0000 H       1  UNL1        0.0271
     41 H          12.0646    2.3359    0.0000 H       1  UNL1        0.0271
     42 H          11.4470    2.9583    0.0000 H       1  UNL1        0.0271
     43 H           5.4588    1.1266    0.0000 H       1  UNL1        0.1037
     44 H           8.1236   -2.0163    0.0000 H       1  UNL1        0.2922
     45 H           9.5266   -2.8263    0.0000 H       1  UNL1        0.2102
     46 H          10.6386   -3.2063    0.0000 H       1  UNL1        0.0275
     47 H          11.2586   -3.8263    0.0000 H       1  UNL1        0.0275
     48 H          11.8786   -3.2063    0.0000 H       1  UNL1        0.0275
     49 H          12.6616   -2.0163    0.0000 H       1  UNL1        0.0535
     50 H          12.1246   -1.0863    0.0000 H       1  UNL1        0.0535
     51 H           4.2601    0.3862    0.0000 H       1  UNL1        0.0625
     52 H           5.6724   -2.0383    0.0000 H       1  UNL1        0.0625
     53 H           2.8602   -0.4292    0.0000 H       1  UNL1        0.0654
     54 H           4.2726   -2.8537    0.0000 H       1  UNL1        0.0654
     55 H           2.0000   -1.9325    0.0000 H       1  UNL1        0.2921
@<TRIPOS>BOND
     1     1     7    1
     2     1     8    1
     3     2    12   ar
     4     2    23   ar
     5     3    14    1
     6     3    44    1
     7     4    17    1
     8     4    45    1
     9     5    20    2
    10     6    31    1
    11     6    55    1
    12     7    15    1
    13     7    18    1
    14     7    19    1
    15     8     9   ar
    16     8    10   ar
    17     9    11    1
    18     9    14   ar
    19    10    12   ar
    20    10    16    1
    21    11    17    1
    22    11    32    1
    23    11    33    1
    24    12    13   ar
    25    13    14   ar
    26    13    20   ar
    27    15    16    2
    28    15    34    1
    29    16    35    1
    30    17    22    1
    31    17    36    1
    32    18    37    1
    33    18    38    1
    34    18    39    1
    35    19    40    1
    36    19    41    1
    37    19    42    1
    38    20    21   ar
    39    21    23   ar
    40    21    24    1
    41    22    25    1
    42    22    26    2
    43    23    43    1
    44    24    27   ar
    45    24    28   ar
    46    25    46    1
    47    25    47    1
    48    25    48    1
    49    26    49    1
    50    26    50    1
    51    27    29   ar
    52    27    51    1
    53    28    30   ar
    54    28    52    1
    55    29    31   ar
    56    29    53    1
    57    30    31   ar
    58    30    54    1
