@<TRIPOS>MOLECULE
IMPHY015535
 26 26 0 0 0
SMALL
GASTEIGER

@<TRIPOS>ATOM
      1 O           3.7320    1.0000    0.0000 O.3     1  UNL1       -0.4918
      2 O           7.1962    1.0000    0.0000 O.3     1  UNL1       -0.5064
      3 C           5.4641    1.0000    0.0000 C.ar    1  UNL1        0.0325
      4 C           4.5981    0.5000    0.0000 C.ar    1  UNL1        0.1271
      5 C           5.4641   -1.0000    0.0000 C.ar    1  UNL1       -0.0435
      6 C           4.5981   -0.5000    0.0000 C.ar    1  UNL1       -0.0165
      7 C           6.3301    0.5000    0.0000 C.ar    1  UNL1        0.1235
      8 C           6.3301   -0.5000    0.0000 C.ar    1  UNL1       -0.0168
      9 C           5.4641    2.0000    0.0000 C.3     1  UNL1       -0.0328
     10 C           5.4641   -2.0000    0.0000 C.3     1  UNL1       -0.0395
     11 C           2.8660    0.5000    0.0000 C.3     1  UNL1        0.0868
     12 C           2.0000    1.0000    0.0000 C.3     1  UNL1       -0.0307
     13 H           4.0611   -0.8100    0.0000 H       1  UNL1        0.0657
     14 H           6.8671   -0.8100    0.0000 H       1  UNL1        0.0657
     15 H           6.0841    2.0000    0.0000 H       1  UNL1        0.0280
     16 H           5.4641    2.6200    0.0000 H       1  UNL1        0.0280
     17 H           4.8441    2.0000    0.0000 H       1  UNL1        0.0280
     18 H           2.4675    0.0251    0.0000 H       1  UNL1        0.0694
     19 H           3.2646    0.0251    0.0000 H       1  UNL1        0.0694
     20 H           4.8441   -2.0000    0.0000 H       1  UNL1        0.0278
     21 H           5.4641   -2.6200    0.0000 H       1  UNL1        0.0278
     22 H           6.0841   -2.0000    0.0000 H       1  UNL1        0.0278
     23 H           2.3100    1.5369    0.0000 H       1  UNL1        0.0262
     24 H           1.4631    1.3100    0.0000 H       1  UNL1        0.0262
     25 H           1.6900    0.4631    0.0000 H       1  UNL1        0.0262
     26 H           7.7331    0.6900    0.0000 H       1  UNL1        0.2921
@<TRIPOS>BOND
     1     1     4    1
     2     1    11    1
     3     2     7    1
     4     2    26    1
     5     3     4   ar
     6     3     7   ar
     7     3     9    1
     8     4     6   ar
     9     5     6   ar
    10     5     8   ar
    11     5    10    1
    12     6    13    1
    13     7     8   ar
    14     8    14    1
    15     9    15    1
    16     9    16    1
    17     9    17    1
    18    10    20    1
    19    10    21    1
    20    10    22    1
    21    11    12    1
    22    11    18    1
    23    11    19    1
    24    12    23    1
    25    12    24    1
    26    12    25    1
