@<TRIPOS>MOLECULE
IMPHY015175
 31 32 0 0 0
SMALL
GASTEIGER

@<TRIPOS>ATOM
      1 N           3.7320    0.6920    0.0000 N.ar    1  UNL1       -0.2637
      2 N           3.8366    1.6865    0.0000 N.ar    1  UNL1       -0.1757
      3 C           4.6456    0.2853    0.0000 C.ar    1  UNL1        0.0397
      4 C           5.3147    1.0284    0.0000 C.ar    1  UNL1       -0.0072
      5 C           2.8660    0.1920    0.0000 C.3     1  UNL1        0.0668
      6 C           4.8147    1.8944    0.0000 C.ar    1  UNL1        0.0631
      7 C           2.8660   -0.8080    0.0000 C.ar    1  UNL1       -0.0261
      8 C           4.8535   -0.6929    0.0000 C.3     1  UNL1       -0.0224
      9 C           6.3092    0.9239    0.0000 C.3     1  UNL1       -0.0363
     10 C           5.2215    2.8080    0.0000 C.3     1  UNL1       -0.0204
     11 C           2.0000   -1.3080    0.0000 C.ar    1  UNL1       -0.0568
     12 C           3.7320   -1.3080    0.0000 C.ar    1  UNL1       -0.0568
     13 C           2.0000   -2.3080    0.0000 C.ar    1  UNL1       -0.0614
     14 C           3.7320   -2.3080    0.0000 C.ar    1  UNL1       -0.0614
     15 C           2.8660   -2.8080    0.0000 C.ar    1  UNL1       -0.0617
     16 H           2.6540    0.7746    0.0000 H       1  UNL1        0.0558
     17 H           2.2554    0.0843    0.0000 H       1  UNL1        0.0558
     18 H           4.2471   -0.8218    0.0000 H       1  UNL1        0.0292
     19 H           4.9824   -1.2993    0.0000 H       1  UNL1        0.0292
     20 H           5.4600   -0.5640    0.0000 H       1  UNL1        0.0292
     21 H           6.2444    0.3073    0.0000 H       1  UNL1        0.0279
     22 H           6.9258    0.8591    0.0000 H       1  UNL1        0.0279
     23 H           6.3741    1.5405    0.0000 H       1  UNL1        0.0279
     24 H           5.7879    2.5558    0.0000 H       1  UNL1        0.0293
     25 H           5.4736    3.3744    0.0000 H       1  UNL1        0.0293
     26 H           4.6551    3.0602    0.0000 H       1  UNL1        0.0293
     27 H           1.4631   -0.9980    0.0000 H       1  UNL1        0.0621
     28 H           4.2690   -0.9980    0.0000 H       1  UNL1        0.0621
     29 H           1.4631   -2.6180    0.0000 H       1  UNL1        0.0618
     30 H           4.2690   -2.6180    0.0000 H       1  UNL1        0.0618
     31 H           2.8660   -3.4280    0.0000 H       1  UNL1        0.0618
@<TRIPOS>BOND
     1     1     2   ar
     2     1     3   ar
     3     1     5    1
     4     2     6   ar
     5     3     4   ar
     6     3     8    1
     7     4     6   ar
     8     4     9    1
     9     5     7    1
    10     5    16    1
    11     5    17    1
    12     6    10    1
    13     7    11   ar
    14     7    12   ar
    15     8    18    1
    16     8    19    1
    17     8    20    1
    18     9    21    1
    19     9    22    1
    20     9    23    1
    21    10    24    1
    22    10    25    1
    23    10    26    1
    24    11    13   ar
    25    11    27    1
    26    12    14   ar
    27    12    28    1
    28    13    15   ar
    29    13    29    1
    30    14    15   ar
    31    14    30    1
    32    15    31    1
