@<TRIPOS>MOLECULE
IMPHY013815
 26 26 0 0 0
SMALL
GASTEIGER

@<TRIPOS>ATOM
      1 C           2.8660    0.7500    0.0000 C.3     1  UNL1       -0.0198
      2 C           2.0000    0.2500    0.0000 C.3     1  UNL1       -0.0428
      3 C           3.7320    0.2500    0.0000 C.3     1  UNL1       -0.0428
      4 C           2.0000   -0.7500    0.0000 C.3     1  UNL1       -0.0315
      5 C           3.7320   -0.7500    0.0000 C.3     1  UNL1       -0.0315
      6 C           2.8660   -1.2500    0.0000 C.2     1  UNL1       -0.0766
      7 C           2.8660    1.7500    0.0000 C.2     1  UNL1       -0.0766
      8 C           3.7320    2.2500    0.0000 C.3     1  UNL1       -0.0438
      9 C           2.8660   -2.2500    0.0000 C.2     1  UNL1       -0.0994
     10 C           2.0000    2.2500    0.0000 C.2     1  UNL1       -0.0994
     11 H           3.4030    1.0600    0.0000 H       1  UNL1        0.0346
     12 H           1.7880    0.8326    0.0000 H       1  UNL1        0.0274
     13 H           1.3894    0.1423    0.0000 H       1  UNL1        0.0274
     14 H           4.3426    0.1423    0.0000 H       1  UNL1        0.0274
     15 H           3.9441    0.8326    0.0000 H       1  UNL1        0.0274
     16 H           1.3894   -0.6423    0.0000 H       1  UNL1        0.0310
     17 H           1.7880   -1.3326    0.0000 H       1  UNL1        0.0310
     18 H           3.9441   -1.3326    0.0000 H       1  UNL1        0.0310
     19 H           4.3426   -0.6423    0.0000 H       1  UNL1        0.0310
     20 H           4.0420    1.7131    0.0000 H       1  UNL1        0.0274
     21 H           4.2690    2.5600    0.0000 H       1  UNL1        0.0274
     22 H           3.4220    2.7869    0.0000 H       1  UNL1        0.0274
     23 H           2.3291   -2.5600    0.0000 H       1  UNL1        0.0534
     24 H           3.4030   -2.5600    0.0000 H       1  UNL1        0.0534
     25 H           2.0000    2.8700    0.0000 H       1  UNL1        0.0534
     26 H           1.4631    1.9400    0.0000 H       1  UNL1        0.0534
@<TRIPOS>BOND
     1     1     2    1
     2     1     3    1
     3     1     7    1
     4     1    11    1
     5     2     4    1
     6     2    12    1
     7     2    13    1
     8     3     5    1
     9     3    14    1
    10     3    15    1
    11     4     6    1
    12     4    16    1
    13     4    17    1
    14     5     6    1
    15     5    18    1
    16     5    19    1
    17     6     9    2
    18     7     8    1
    19     7    10    2
    20     8    20    1
    21     8    21    1
    22     8    22    1
    23     9    23    1
    24     9    24    1
    25    10    25    1
    26    10    26    1
