@<TRIPOS>MOLECULE
IMPHY015874
 24 24 0 0 0
SMALL
GASTEIGER

@<TRIPOS>ATOM
      1 C           3.7320   -0.2500    0.0000 C.ar    1  UNL1       -0.0445
      2 C           4.5981    0.2500    0.0000 C.ar    1  UNL1       -0.0445
      3 C           2.8660    0.2500    0.0000 C.3     1  UNL1       -0.0303
      4 C           4.5981    1.2500    0.0000 C.3     1  UNL1       -0.0303
      5 C           3.7320   -1.2500    0.0000 C.ar    1  UNL1       -0.0583
      6 C           5.4641   -0.2500    0.0000 C.ar    1  UNL1       -0.0583
      7 C           2.0000   -0.2500    0.0000 C.3     1  UNL1       -0.0613
      8 C           5.4641    1.7500    0.0000 C.3     1  UNL1       -0.0613
      9 C           4.5981   -1.7500    0.0000 C.ar    1  UNL1       -0.0615
     10 C           5.4641   -1.2500    0.0000 C.ar    1  UNL1       -0.0615
     11 H           3.2646    0.7249    0.0000 H       1  UNL1        0.0311
     12 H           2.4675    0.7249    0.0000 H       1  UNL1        0.0311
     13 H           4.3860    1.8326    0.0000 H       1  UNL1        0.0311
     14 H           3.9875    1.1423    0.0000 H       1  UNL1        0.0311
     15 H           3.1951   -1.5600    0.0000 H       1  UNL1        0.0620
     16 H           6.0010    0.0600    0.0000 H       1  UNL1        0.0620
     17 H           1.6900    0.2869    0.0000 H       1  UNL1        0.0233
     18 H           1.4631   -0.5600    0.0000 H       1  UNL1        0.0233
     19 H           2.3100   -0.7869    0.0000 H       1  UNL1        0.0233
     20 H           5.7741    1.2131    0.0000 H       1  UNL1        0.0233
     21 H           6.0010    2.0600    0.0000 H       1  UNL1        0.0233
     22 H           5.1541    2.2869    0.0000 H       1  UNL1        0.0233
     23 H           4.5981   -2.3700    0.0000 H       1  UNL1        0.0618
     24 H           6.0010   -1.5600    0.0000 H       1  UNL1        0.0618
@<TRIPOS>BOND
     1     1     2   ar
     2     1     3    1
     3     1     5   ar
     4     2     4    1
     5     2     6   ar
     6     3     7    1
     7     3    11    1
     8     3    12    1
     9     4     8    1
    10     4    13    1
    11     4    14    1
    12     5     9   ar
    13     5    15    1
    14     6    10   ar
    15     6    16    1
    16     7    17    1
    17     7    18    1
    18     7    19    1
    19     8    20    1
    20     8    21    1
    21     8    22    1
    22     9    10   ar
    23     9    23    1
    24    10    24    1
