@<TRIPOS>MOLECULE
IMPHY009444
 49 53 0 0 0
SMALL
GASTEIGER

@<TRIPOS>ATOM
      1 O           4.6571   -3.7408    0.0000 O.3     1  UNL1       -0.4523
      2 O           3.2118   -4.5902    0.0000 O.3     1  UNL1       -0.4526
      3 O           2.0116    3.1265    0.0000 O.3     1  UNL1       -0.4914
      4 O           3.8149    4.1863    0.0000 O.3     1  UNL1       -0.4914
      5 N           4.7340   -0.5104    0.0000 N.3     1  UNL1       -0.2903
      6 C           3.8680   -0.0104    0.0000 C.3     1  UNL1        0.0429
      7 C           3.0020   -0.5104    0.0000 C.3     1  UNL1        0.0015
      8 C           4.7340   -1.5104    0.0000 C.3     1  UNL1        0.0285
      9 C           3.8520    1.0311    0.0000 C.ar    1  UNL1       -0.0228
     10 C           5.6440   -0.0036    0.0000 C.3     1  UNL1        0.0038
     11 C           3.0020   -1.5104    0.0000 C.ar    1  UNL1       -0.0346
     12 C           3.8680   -2.0104    0.0000 C.ar    1  UNL1        0.0155
     13 C           5.6521    1.0380    0.0000 C.3     1  UNL1       -0.0144
     14 C           4.7500    1.5588    0.0000 C.ar    1  UNL1       -0.0378
     15 C           2.1360   -0.0104    0.0000 C.3     1  UNL1       -0.0566
     16 C           3.8841   -3.0519    0.0000 C.ar    1  UNL1        0.1709
     17 C           2.9000    1.5517    0.0000 C.ar    1  UNL1       -0.0113
     18 C           2.0920   -2.0173    0.0000 C.ar    1  UNL1       -0.0543
     19 C           4.7584    2.6438    0.0000 C.ar    1  UNL1       -0.0128
     20 C           2.9860   -3.5797    0.0000 C.ar    1  UNL1        0.1666
     21 C           2.0840   -3.0589    0.0000 C.ar    1  UNL1       -0.0159
     22 C           2.8833    2.6366    0.0000 C.ar    1  UNL1        0.1618
     23 C           3.8187    3.1863    0.0000 C.ar    1  UNL1        0.1618
     24 C           4.2424   -4.6896    0.0000 C.3     1  UNL1        0.2332
     25 C           2.0000    4.1265    0.0000 C.3     1  UNL1        0.0790
     26 C           4.6790    4.6896    0.0000 C.3     1  UNL1        0.0790
     27 H           3.1286    0.4089    0.0000 H       1  UNL1        0.0518
     28 H           3.0020    0.1096    0.0000 H       1  UNL1        0.0365
     29 H           4.9461   -2.0930    0.0000 H       1  UNL1        0.0477
     30 H           5.3446   -1.4028    0.0000 H       1  UNL1        0.0477
     31 H           5.8486   -0.5889    0.0000 H       1  UNL1        0.0430
     32 H           6.2557    0.0978    0.0000 H       1  UNL1        0.0430
     33 H           6.2621    0.9272    0.0000 H       1  UNL1        0.0326
     34 H           5.8656    1.6201    0.0000 H       1  UNL1        0.0326
     35 H           2.4460    0.5265    0.0000 H       1  UNL1        0.0236
     36 H           1.5990    0.2996    0.0000 H       1  UNL1        0.0236
     37 H           1.8260   -0.5473    0.0000 H       1  UNL1        0.0236
     38 H           2.3692    1.2314    0.0000 H       1  UNL1        0.0659
     39 H           1.5587   -1.7011    0.0000 H       1  UNL1        0.0622
     40 H           5.2965    2.9517    0.0000 H       1  UNL1        0.0658
     41 H           1.5458   -3.3668    0.0000 H       1  UNL1        0.0655
     42 H           4.1184   -5.2971    0.0000 H       1  UNL1        0.1166
     43 H           4.8335   -4.8768    0.0000 H       1  UNL1        0.1166
     44 H           2.6200    4.1336    0.0000 H       1  UNL1        0.0660
     45 H           1.9928    4.7464    0.0000 H       1  UNL1        0.0660
     46 H           1.3800    4.1193    0.0000 H       1  UNL1        0.0660
     47 H           4.9910    4.1539    0.0000 H       1  UNL1        0.0660
     48 H           5.2147    5.0017    0.0000 H       1  UNL1        0.0660
     49 H           4.3669    5.2254    0.0000 H       1  UNL1        0.0660
@<TRIPOS>BOND
     1     1    16    1
     2     1    24    1
     3     2    20    1
     4     2    24    1
     5     3    22    1
     6     3    25    1
     7     4    23    1
     8     4    26    1
     9     5     6    1
    10     5     8    1
    11     5    10    1
    12     6     7    1
    13     6     9    1
    14     6    27    1
    15     7    11    1
    16     7    15    1
    17     7    28    1
    18     8    12    1
    19     8    29    1
    20     8    30    1
    21     9    14   ar
    22     9    17   ar
    23    10    13    1
    24    10    31    1
    25    10    32    1
    26    11    12   ar
    27    11    18   ar
    28    12    16   ar
    29    13    14    1
    30    13    33    1
    31    13    34    1
    32    14    19   ar
    33    15    35    1
    34    15    36    1
    35    15    37    1
    36    16    20   ar
    37    17    22   ar
    38    17    38    1
    39    18    21   ar
    40    18    39    1
    41    19    23   ar
    42    19    40    1
    43    20    21   ar
    44    21    41    1
    45    22    23   ar
    46    24    42    1
    47    24    43    1
    48    25    44    1
    49    25    45    1
    50    25    46    1
    51    26    47    1
    52    26    48    1
    53    26    49    1
