@<TRIPOS>MOLECULE
IMPHY001343
 52 56 0 0 0
SMALL
GASTEIGER

@<TRIPOS>ATOM
      1 O           5.8785   -2.1299    0.0000 O.3     1  UNL1       -0.4600
      2 O           4.3012    1.2656    0.0000 O.3     1  UNL1       -0.3505
      3 O           4.9134    1.7069    0.0000 O.3     1  UNL1       -0.3914
      4 O           2.6307    1.3190    0.0000 O.3     1  UNL1       -0.3667
      5 O           7.6405   -1.9599    0.0000 O.2     1  UNL1       -0.2497
      6 O           8.3235   -0.6887    0.0000 O.2     1  UNL1       -0.2912
      7 C           4.8702   -0.6386    0.0000 C.3     1  UNL1        0.0456
      8 C           5.7398   -0.0652    0.0000 C.3     1  UNL1        0.0195
      9 C           3.9038   -0.1454    0.0000 C.3     1  UNL1        0.0266
     10 C           6.6407   -0.4991    0.0000 C.3     1  UNL1        0.1360
     11 C           4.9400   -1.6779    0.0000 C.3     1  UNL1        0.1116
     12 C           2.9980   -0.7427    0.0000 C.3     1  UNL1       -0.0266
     13 C           5.5172    0.9097    0.0000 C.3     1  UNL1        0.0607
     14 C           5.1474    0.4037    0.0000 C.3     1  UNL1        0.0605
     15 C           6.5339    0.6777    0.0000 C.3     1  UNL1       -0.0227
     16 C           7.1407    1.6916    0.0000 C.3     1  UNL1       -0.0093
     17 C           4.0483   -2.2960    0.0000 C.3     1  UNL1       -0.0145
     18 C           3.5206    0.8628    0.0000 C.3     1  UNL1        0.1602
     19 C           3.0707   -1.8252    0.0000 C.3     1  UNL1       -0.0441
     20 C           6.1407    1.6916    0.0000 C.3     1  UNL1       -0.0196
     21 C           6.7346   -1.5365    0.0000 C.2     1  UNL1        0.3216
     22 C           7.5417   -0.0652    0.0000 C.2     1  UNL1        0.1761
     23 C           7.7642    0.9097    0.0000 C.2     1  UNL1       -0.0077
     24 C           2.0000   -0.8059    0.0000 C.3     1  UNL1       -0.0594
     25 C           2.4443    0.0900    0.0000 C.3     1  UNL1       -0.0594
     26 C           8.7392    1.1322    0.0000 C.2     1  UNL1       -0.0919
     27 H           4.9160   -0.2749    0.0000 H       1  UNL1        0.0348
     28 H           3.0949    0.1158    0.0000 H       1  UNL1        0.0362
     29 H           5.0068   -2.5253    0.0000 H       1  UNL1        0.0740
     30 H           4.9553    0.6477    0.0000 H       1  UNL1        0.0597
     31 H           5.7088    0.1407    0.0000 H       1  UNL1        0.0568
     32 H           5.5058    0.9096    0.0000 H       1  UNL1        0.0568
     33 H           6.1261    1.1447    0.0000 H       1  UNL1        0.0286
     34 H           5.9638    0.4339    0.0000 H       1  UNL1        0.0286
     35 H           7.3299    2.5202    0.0000 H       1  UNL1        0.0351
     36 H           3.6877   -2.8003    0.0000 H       1  UNL1        0.0301
     37 H           4.4835   -2.7376    0.0000 H       1  UNL1        0.0301
     38 H           3.0586    0.4493    0.0000 H       1  UNL1        0.0910
     39 H           2.4542   -1.7604    0.0000 H       1  UNL1        0.0272
     40 H           2.9013   -2.4216    0.0000 H       1  UNL1        0.0272
     41 H           6.2787    2.2960    0.0000 H       1  UNL1        0.0296
     42 H           5.5821    1.9606    0.0000 H       1  UNL1        0.0296
     43 H           1.9608   -0.1871    0.0000 H       1  UNL1        0.0235
     44 H           1.3812   -0.8451    0.0000 H       1  UNL1        0.0235
     45 H           2.0392   -1.4246    0.0000 H       1  UNL1        0.0235
     46 H           2.9606    0.4333    0.0000 H       1  UNL1        0.0235
     47 H           2.1010    0.6063    0.0000 H       1  UNL1        0.0235
     48 H           1.9280   -0.2533    0.0000 H       1  UNL1        0.0235
     49 H           5.1543    2.2782    0.0000 H       1  UNL1        0.2098
     50 H           2.5997    1.9382    0.0000 H       1  UNL1        0.2125
     51 H           9.1609    0.6778    0.0000 H       1  UNL1        0.0539
     52 H           8.9219    1.7247    0.0000 H       1  UNL1        0.0539
@<TRIPOS>BOND
     1     1    11    1
     2     1    21    1
     3     2    14    1
     4     2    18    1
     5    13     3    1
     6     3    49    1
     7    18     4    1
     8     4    50    1
     9     5    21    2
    10     6    22    2
    11     7     8    1
    12     7     9    1
    13     7    11    1
    14     7    14    1
    15     8    10    1
    16     8    13    1
    17     8    27    1
    18     9    12    1
    19     9    18    1
    20     9    28    1
    21    10    15    1
    22    10    21    1
    23    10    22    1
    24    11    17    1
    25    11    29    1
    26    12    19    1
    27    12    24    1
    28    12    25    1
    29    13    20    1
    30    13    30    1
    31    14    31    1
    32    14    32    1
    33    15    16    1
    34    15    33    1
    35    15    34    1
    36    16    20    1
    37    16    23    1
    38    16    35    1
    39    17    19    1
    40    17    36    1
    41    17    37    1
    42    18    38    1
    43    19    39    1
    44    19    40    1
    45    20    41    1
    46    20    42    1
    47    22    23    1
    48    23    26    2
    49    24    43    1
    50    24    44    1
    51    24    45    1
    52    25    46    1
    53    25    47    1
    54    25    48    1
    55    26    51    1
    56    26    52    1
