@<TRIPOS>MOLECULE
IMPHY015291
 31 30 0 0 0
SMALL
GASTEIGER

@<TRIPOS>ATOM
      1 O           2.5369    0.7500    0.0000 O.3     1  UNL1       -0.3910
      2 C           7.7331    0.7500    0.0000 C.3     1  UNL1       -0.0504
      3 C           8.5991    0.2500    0.0000 C.3     1  UNL1       -0.0467
      4 C           6.8671    0.2500    0.0000 C.3     1  UNL1       -0.0491
      5 C           6.0010    0.7500    0.0000 C.3     1  UNL1       -0.0319
      6 C           9.4651    0.7500    0.0000 C.3     1  UNL1       -0.0627
      7 C           8.5991   -0.7500    0.0000 C.3     1  UNL1       -0.0627
      8 C           5.1350    0.2500    0.0000 C.2     1  UNL1       -0.0744
      9 C           5.1350   -0.7500    0.0000 C.3     1  UNL1       -0.0437
     10 C           4.2690    0.7500    0.0000 C.2     1  UNL1       -0.0600
     11 C           3.4030    0.2500    0.0000 C.3     1  UNL1        0.0626
     12 H           8.1316    1.2250    0.0000 H       1  UNL1        0.0268
     13 H           7.3346    1.2250    0.0000 H       1  UNL1        0.0268
     14 H           8.5991    0.8700    0.0000 H       1  UNL1        0.0295
     15 H           6.4685   -0.2249    0.0000 H       1  UNL1        0.0268
     16 H           7.2656   -0.2249    0.0000 H       1  UNL1        0.0268
     17 H           6.3996    1.2250    0.0000 H       1  UNL1        0.0310
     18 H           5.6025    1.2250    0.0000 H       1  UNL1        0.0310
     19 H           9.7751    0.2131    0.0000 H       1  UNL1        0.0232
     20 H          10.0021    1.0600    0.0000 H       1  UNL1        0.0232
     21 H           9.1551    1.2869    0.0000 H       1  UNL1        0.0232
     22 H           7.9791   -0.7500    0.0000 H       1  UNL1        0.0232
     23 H           8.5991   -1.3700    0.0000 H       1  UNL1        0.0232
     24 H           9.2191   -0.7500    0.0000 H       1  UNL1        0.0232
     25 H           4.5150   -0.7500    0.0000 H       1  UNL1        0.0274
     26 H           5.1350   -1.3700    0.0000 H       1  UNL1        0.0274
     27 H           5.7550   -0.7500    0.0000 H       1  UNL1        0.0274
     28 H           4.2690    1.3700    0.0000 H       1  UNL1        0.0594
     29 H           3.0044   -0.2249    0.0000 H       1  UNL1        0.0601
     30 H           3.8015   -0.2249    0.0000 H       1  UNL1        0.0601
     31 H           2.0000    0.4400    0.0000 H       1  UNL1        0.2098
@<TRIPOS>BOND
     1     1    11    1
     2     1    31    1
     3     2     3    1
     4     2     4    1
     5     2    12    1
     6     2    13    1
     7     3     6    1
     8     3     7    1
     9     3    14    1
    10     4     5    1
    11     4    15    1
    12     4    16    1
    13     5     8    1
    14     5    17    1
    15     5    18    1
    16     6    19    1
    17     6    20    1
    18     6    21    1
    19     7    22    1
    20     7    23    1
    21     7    24    1
    22     8     9    1
    23     8    10    2
    24     9    25    1
    25     9    26    1
    26     9    27    1
    27    10    11    1
    28    10    28    1
    29    11    29    1
    30    11    30    1
