@<TRIPOS>MOLECULE
IMPHY003533
 19 19 0 0 0
SMALL
GASTEIGER

@<TRIPOS>ATOM
      1 O           3.7320    1.2500    0.0000 O.3     1  UNL1       -0.4948
      2 C           2.8660   -0.2500    0.0000 C.ar    1  UNL1       -0.0088
      3 C           3.7320    0.2500    0.0000 C.ar    1  UNL1        0.1230
      4 C           2.8660   -1.2500    0.0000 C.ar    1  UNL1       -0.0554
      5 C           4.5981   -0.2500    0.0000 C.ar    1  UNL1       -0.0197
      6 C           2.0000    0.2500    0.0000 C.3     1  UNL1       -0.0362
      7 C           3.7320   -1.7500    0.0000 C.ar    1  UNL1       -0.0613
      8 C           4.5981   -1.2500    0.0000 C.ar    1  UNL1       -0.0583
      9 C           4.5981    1.7500    0.0000 C.3     1  UNL1        0.0788
     10 H           2.3291   -1.5600    0.0000 H       1  UNL1        0.0621
     11 H           5.1350    0.0600    0.0000 H       1  UNL1        0.0654
     12 H           2.3100    0.7869    0.0000 H       1  UNL1        0.0279
     13 H           1.4631    0.5600    0.0000 H       1  UNL1        0.0279
     14 H           1.6900   -0.2869    0.0000 H       1  UNL1        0.0279
     15 H           3.7320   -2.3700    0.0000 H       1  UNL1        0.0618
     16 H           5.1350   -1.5600    0.0000 H       1  UNL1        0.0619
     17 H           4.9081    1.2131    0.0000 H       1  UNL1        0.0660
     18 H           5.1350    2.0600    0.0000 H       1  UNL1        0.0660
     19 H           4.2881    2.2869    0.0000 H       1  UNL1        0.0660
@<TRIPOS>BOND
     1     1     3    1
     2     1     9    1
     3     2     3   ar
     4     2     4   ar
     5     2     6    1
     6     3     5   ar
     7     4     7   ar
     8     4    10    1
     9     5     8   ar
    10     5    11    1
    11     6    12    1
    12     6    13    1
    13     6    14    1
    14     7     8   ar
    15     7    15    1
    16     8    16    1
    17     9    17    1
    18     9    18    1
    19     9    19    1
