@<TRIPOS>MOLECULE
IMPHY012439
 93 98 0 0 0
SMALL
GASTEIGER

@<TRIPOS>ATOM
      1 O           4.6901    3.4836    0.0000 O.3     1  UNL1       -0.4914
      2 O           2.8774   -3.4844    0.0000 O.3     1  UNL1       -0.4914
      3 O           4.6901    5.4836    0.0000 O.3     1  UNL1       -0.4914
      4 O           2.8311   -5.4839    0.0000 O.3     1  UNL1       -0.4914
      5 O           9.8678   -0.5708    0.0000 O.3     1  UNL1       -0.4523
      6 O          11.6113    0.4091    0.0000 O.3     1  UNL1       -0.4914
      7 N           9.0882    3.9628    0.0000 N.3     1  UNL1       -0.2978
      8 N           7.2632   -4.0652    0.0000 N.3     1  UNL1       -0.2978
      9 C           8.1821    3.4490    0.0000 C.3     1  UNL1        0.0397
     10 C           6.3692   -3.5305    0.0000 C.3     1  UNL1        0.0397
     11 C           7.2882    3.9836    0.0000 C.ar    1  UNL1       -0.0231
     12 C           5.4632   -4.0444    0.0000 C.ar    1  UNL1       -0.0231
     13 C           9.0882    5.0044    0.0000 C.3     1  UNL1        0.0032
     14 C           7.2391   -5.1066    0.0000 C.3     1  UNL1        0.0032
     15 C           8.1821    5.5183    0.0000 C.3     1  UNL1       -0.0144
     16 C           7.2882    4.9836    0.0000 C.ar    1  UNL1       -0.0378
     17 C           6.3214   -5.5993    0.0000 C.3     1  UNL1       -0.0144
     18 C           8.1706    2.4490    0.0000 C.3     1  UNL1       -0.0078
     19 C           5.4400   -5.0441    0.0000 C.ar    1  UNL1       -0.0378
     20 C           6.3808   -2.5306    0.0000 C.3     1  UNL1       -0.0079
     21 C           6.4222    3.4836    0.0000 C.ar    1  UNL1       -0.0114
     22 C           9.9523    3.4595    0.0000 C.3     1  UNL1       -0.0122
     23 C           4.6089   -3.5245    0.0000 C.ar    1  UNL1       -0.0114
     24 C           8.1387   -3.5820    0.0000 C.3     1  UNL1       -0.0122
     25 C           9.0307    1.9391    0.0000 C.ar    1  UNL1       -0.0419
     26 C           6.4222    5.4836    0.0000 C.ar    1  UNL1       -0.0128
     27 C           7.2526   -2.0406    0.0000 C.ar    1  UNL1       -0.0453
     28 C           4.5627   -5.5240    0.0000 C.ar    1  UNL1       -0.0128
     29 C           5.5561    3.9836    0.0000 C.ar    1  UNL1        0.1618
     30 C           3.7316   -4.0043    0.0000 C.ar    1  UNL1        0.1618
     31 C           5.5561    4.9836    0.0000 C.ar    1  UNL1        0.1618
     32 C           3.7085   -5.0041    0.0000 C.ar    1  UNL1        0.1618
     33 C           9.0192    0.9391    0.0000 C.ar    1  UNL1       -0.0124
     34 C           9.9025    2.4290    0.0000 C.ar    1  UNL1       -0.0548
     35 C           7.2641   -1.0407    0.0000 C.ar    1  UNL1       -0.0550
     36 C           8.1127   -2.5506    0.0000 C.ar    1  UNL1       -0.0550
     37 C           9.8794    0.4291    0.0000 C.ar    1  UNL1        0.1701
     38 C           8.9960   -1.0607    0.0000 C.ar    1  UNL1        0.1286
     39 C           8.1359   -0.5508    0.0000 C.ar    1  UNL1       -0.0191
     40 C           8.9845   -2.0607    0.0000 C.ar    1  UNL1       -0.0191
     41 C          10.7627    1.9190    0.0000 C.ar    1  UNL1       -0.0160
     42 C          10.7511    0.9191    0.0000 C.ar    1  UNL1        0.1621
     43 C           4.6901    2.4836    0.0000 C.3     1  UNL1        0.0790
     44 C           2.0000   -3.9643    0.0000 C.3     1  UNL1        0.0790
     45 C           4.6901    6.4836    0.0000 C.3     1  UNL1        0.0790
     46 C           2.8080   -6.4836    0.0000 C.3     1  UNL1        0.0790
     47 C          12.4830    0.8991    0.0000 C.3     1  UNL1        0.0790
     48 H           8.7160    3.1338    0.0000 H       1  UNL1        0.0515
     49 H           6.9103   -3.2278    0.0000 H       1  UNL1        0.0515
     50 H           9.6990    4.8984    0.0000 H       1  UNL1        0.0430
     51 H           9.2972    5.5881    0.0000 H       1  UNL1        0.0430
     52 H           7.4346   -5.6949    0.0000 H       1  UNL1        0.0430
     53 H           7.8522   -5.0146    0.0000 H       1  UNL1        0.0430
     54 H           8.5758    5.9973    0.0000 H       1  UNL1        0.0326
     55 H           7.7775    5.9881    0.0000 H       1  UNL1        0.0326
     56 H           5.9060   -6.0596    0.0000 H       1  UNL1        0.0326
     57 H           6.7038   -6.0873    0.0000 H       1  UNL1        0.0326
     58 H           7.5613    2.5638    0.0000 H       1  UNL1        0.0332
     59 H           7.9518    1.8689    0.0000 H       1  UNL1        0.0332
     60 H           6.1755   -1.9456    0.0000 H       1  UNL1        0.0332
     61 H           5.7690   -2.6312    0.0000 H       1  UNL1        0.0332
     62 H           6.4222    2.8636    0.0000 H       1  UNL1        0.0659
     63 H           9.6402    2.9237    0.0000 H       1  UNL1        0.0391
     64 H          10.4880    3.1474    0.0000 H       1  UNL1        0.0391
     65 H          10.2643    3.9952    0.0000 H       1  UNL1        0.0391
     66 H           4.6233   -2.9046    0.0000 H       1  UNL1        0.0659
     67 H           8.4383   -4.1248    0.0000 H       1  UNL1        0.0391
     68 H           8.6815   -3.2824    0.0000 H       1  UNL1        0.0391
     69 H           7.8391   -3.0392    0.0000 H       1  UNL1        0.0391
     70 H           6.4222    6.1036    0.0000 H       1  UNL1        0.0658
     71 H           4.5484   -6.1438    0.0000 H       1  UNL1        0.0658
     72 H           8.4787    0.6354    0.0000 H       1  UNL1        0.0658
     73 H           9.9097    3.0490    0.0000 H       1  UNL1        0.0621
     74 H           6.7308   -0.7245    0.0000 H       1  UNL1        0.0621
     75 H           8.1056   -3.1706    0.0000 H       1  UNL1        0.0621
     76 H           8.1430    0.0692    0.0000 H       1  UNL1        0.0654
     77 H           9.5178   -2.3769    0.0000 H       1  UNL1        0.0654
     78 H          11.3032    2.2228    0.0000 H       1  UNL1        0.0655
     79 H           4.0701    2.4836    0.0000 H       1  UNL1        0.0660
     80 H           4.6901    1.8636    0.0000 H       1  UNL1        0.0660
     81 H           5.3101    2.4836    0.0000 H       1  UNL1        0.0660
     82 H           1.7025   -3.4203    0.0000 H       1  UNL1        0.0660
     83 H           1.4560   -4.2618    0.0000 H       1  UNL1        0.0660
     84 H           2.2975   -4.5082    0.0000 H       1  UNL1        0.0660
     85 H           5.3101    6.4836    0.0000 H       1  UNL1        0.0660
     86 H           4.6901    7.1036    0.0000 H       1  UNL1        0.0660
     87 H           4.0701    6.4836    0.0000 H       1  UNL1        0.0660
     88 H           2.1881   -6.4693    0.0000 H       1  UNL1        0.0660
     89 H           2.7936   -7.1035    0.0000 H       1  UNL1        0.0660
     90 H           3.4278   -6.4980    0.0000 H       1  UNL1        0.0660
     91 H          12.7868    0.3586    0.0000 H       1  UNL1        0.0660
     92 H          13.0235    1.2028    0.0000 H       1  UNL1        0.0660
     93 H          12.1793    1.4396    0.0000 H       1  UNL1        0.0660
@<TRIPOS>BOND
     1     1    29    1
     2     1    43    1
     3     2    30    1
     4     2    44    1
     5     3    31    1
     6     3    45    1
     7     4    32    1
     8     4    46    1
     9     5    37    1
    10     5    38    1
    11     6    42    1
    12     6    47    1
    13     7     9    1
    14     7    13    1
    15     7    22    1
    16     8    10    1
    17     8    14    1
    18     8    24    1
    19     9    11    1
    20     9    18    1
    21     9    48    1
    22    10    12    1
    23    10    20    1
    24    10    49    1
    25    11    16   ar
    26    11    21   ar
    27    12    19   ar
    28    12    23   ar
    29    13    15    1
    30    13    50    1
    31    13    51    1
    32    14    17    1
    33    14    52    1
    34    14    53    1
    35    15    16    1
    36    15    54    1
    37    15    55    1
    38    16    26   ar
    39    17    19    1
    40    17    56    1
    41    17    57    1
    42    18    25    1
    43    18    58    1
    44    18    59    1
    45    19    28   ar
    46    20    27    1
    47    20    60    1
    48    20    61    1
    49    21    29   ar
    50    21    62    1
    51    22    63    1
    52    22    64    1
    53    22    65    1
    54    23    30   ar
    55    23    66    1
    56    24    67    1
    57    24    68    1
    58    24    69    1
    59    25    33   ar
    60    25    34   ar
    61    26    31   ar
    62    26    70    1
    63    27    35   ar
    64    27    36   ar
    65    28    32   ar
    66    28    71    1
    67    29    31   ar
    68    30    32   ar
    69    33    37   ar
    70    33    72    1
    71    34    41   ar
    72    34    73    1
    73    35    39   ar
    74    35    74    1
    75    36    40   ar
    76    36    75    1
    77    37    42   ar
    78    38    39   ar
    79    38    40   ar
    80    39    76    1
    81    40    77    1
    82    41    42   ar
    83    41    78    1
    84    43    79    1
    85    43    80    1
    86    43    81    1
    87    44    82    1
    88    44    83    1
    89    44    84    1
    90    45    85    1
    91    45    86    1
    92    45    87    1
    93    46    88    1
    94    46    89    1
    95    46    90    1
    96    47    91    1
    97    47    92    1
    98    47    93    1
