@<TRIPOS>MOLECULE
IMPHY017785
 16 16 0 0 0
SMALL
GASTEIGER

@<TRIPOS>ATOM
      1 O           3.7601   -1.1739    0.0000 O.2     1  UNL1       -0.4857
      2 O           2.6723    1.1739    0.0000 O.2     1  UNL1       -0.2886
      3 C           2.9511   -0.5861    0.0000 C.3     1  UNL1        0.1584
      4 C           3.2601    0.3649    0.0000 C.2     1  UNL1        0.1991
      5 C           4.5691   -0.5861    0.0000 C.2     1  UNL1        0.0991
      6 C           2.0000   -0.8952    0.0000 C.3     1  UNL1       -0.0204
      7 C           4.2601    0.3649    0.0000 C.2     1  UNL1        0.0218
      8 C           5.5202   -0.8952    0.0000 C.3     1  UNL1       -0.0068
      9 H           2.8541   -1.1985    0.0000 H       1  UNL1        0.0814
     10 H           1.8084   -0.3055    0.0000 H       1  UNL1        0.0270
     11 H           1.4103   -1.0868    0.0000 H       1  UNL1        0.0270
     12 H           2.1916   -1.4848    0.0000 H       1  UNL1        0.0270
     13 H           4.6245    0.8665    0.0000 H       1  UNL1        0.0687
     14 H           5.3286   -1.4848    0.0000 H       1  UNL1        0.0308
     15 H           6.1098   -1.0868    0.0000 H       1  UNL1        0.0308
     16 H           5.7117   -0.3055    0.0000 H       1  UNL1        0.0308
@<TRIPOS>BOND
     1     1     3    1
     2     1     5    1
     3     2     4    2
     4     3     4    1
     5     3     6    1
     6     3     9    1
     7     4     7    1
     8     5     7    2
     9     5     8    1
    10     6    10    1
    11     6    11    1
    12     6    12    1
    13     7    13    1
    14     8    14    1
    15     8    15    1
    16     8    16    1
