@<TRIPOS>MOLECULE
IMPHY009397
 50 53 0 0 0
SMALL
GASTEIGER

@<TRIPOS>ATOM
      1 O           2.3052   -2.1910    0.0000 O.3     1  UNL1       -0.4802
      2 O           3.8128   -3.0437    0.0000 O.2     1  UNL1       -0.2504
      3 C           6.5090    0.3000    0.0000 C.3     1  UNL1       -0.0035
      4 C           4.7330    0.2843    0.0000 C.3     1  UNL1       -0.0067
      5 C           4.7302   -0.7574    0.0000 C.3     1  UNL1       -0.0164
      6 C           5.6405    0.7956    0.0000 C.2     1  UNL1       -0.0608
      7 C           6.5302   -0.7415    0.0000 C.3     1  UNL1       -0.0430
      8 C           5.6349   -1.2737    0.0000 C.3     1  UNL1       -0.0476
      9 C           3.7975   -1.3118    0.0000 C.3     1  UNL1        0.0684
     10 C           6.4845    1.4813    0.0000 C.3     1  UNL1       -0.0365
     11 C           7.1606    2.4504    0.0000 C.3     1  UNL1       -0.0159
     12 C           7.4380    0.6699    0.0000 C.3     1  UNL1       -0.0223
     13 C           3.8034    0.8437    0.0000 C.3     1  UNL1       -0.0436
     14 C           2.8552   -0.7740    0.0000 C.3     1  UNL1       -0.0372
     15 C           7.7280    1.6270    0.0000 C.2     1  UNL1       -0.0724
     16 C           2.8582    0.3110    0.0000 C.3     1  UNL1       -0.0513
     17 C           5.4865    1.7837    0.0000 C.2     1  UNL1       -0.0831
     18 C           6.1630    2.5201    0.0000 C.3     1  UNL1       -0.0279
     19 C           4.7358    1.2842    0.0000 C.3     1  UNL1       -0.0555
     20 C           4.3052   -2.1733    0.0000 C.3     1  UNL1       -0.0491
     21 C           3.3052   -2.1822    0.0000 C.2     1  UNL1        0.3110
     22 C           8.7161    1.7809    0.0000 C.2     1  UNL1       -0.0991
     23 H           4.7377   -1.6073    0.0000 H       1  UNL1        0.0320
     24 H           6.7512   -1.3208    0.0000 H       1  UNL1        0.0274
     25 H           7.1388   -0.6229    0.0000 H       1  UNL1        0.0274
     26 H           5.2399   -1.7516    0.0000 H       1  UNL1        0.0269
     27 H           6.0382   -1.7446    0.0000 H       1  UNL1        0.0269
     28 H           6.1103    1.9756    0.0000 H       1  UNL1        0.0280
     29 H           5.8988    1.2778    0.0000 H       1  UNL1        0.0280
     30 H           7.4071    3.2639    0.0000 H       1  UNL1        0.0349
     31 H           7.5335    0.0573    0.0000 H       1  UNL1        0.0318
     32 H           8.0565    0.6267    0.0000 H       1  UNL1        0.0318
     33 H           4.2093    1.3124    0.0000 H       1  UNL1        0.0274
     34 H           3.4111    1.3238    0.0000 H       1  UNL1        0.0274
     35 H           2.2446   -0.6662    0.0000 H       1  UNL1        0.0276
     36 H           2.6446   -1.3571    0.0000 H       1  UNL1        0.0276
     37 H           2.6507    0.8953    0.0000 H       1  UNL1        0.0266
     38 H           2.2470    0.2066    0.0000 H       1  UNL1        0.0266
     39 H           4.8932    1.9635    0.0000 H       1  UNL1        0.0572
     40 H           6.3428    3.1135    0.0000 H       1  UNL1        0.0313
     41 H           5.6246    2.8275    0.0000 H       1  UNL1        0.0313
     42 H           5.3557    1.2826    0.0000 H       1  UNL1        0.0238
     43 H           4.7374    1.9042    0.0000 H       1  UNL1        0.0238
     44 H           4.1158    1.2859    0.0000 H       1  UNL1        0.0238
     45 H           3.7710   -2.4881    0.0000 H       1  UNL1        0.0240
     46 H           4.6199   -2.7075    0.0000 H       1  UNL1        0.0240
     47 H           4.8393   -1.8586    0.0000 H       1  UNL1        0.0240
     48 H           9.1051    1.2981    0.0000 H       1  UNL1        0.0534
     49 H           8.9397    2.3592    0.0000 H       1  UNL1        0.0534
     50 H           2.0000   -2.7307    0.0000 H       1  UNL1        0.2951
@<TRIPOS>BOND
     1     1    21    1
     2     1    50    1
     3     2    21    2
     4     3     6    1
     5     3     7    1
     6     3    10    1
     7     3    12    1
     8     4     5    1
     9     4     6    1
    10     4    13    1
    11     4    19    1
    12     5     8    1
    13     5     9    1
    14     5    23    1
    15     6    17    2
    16     7     8    1
    17     7    24    1
    18     7    25    1
    19     8    26    1
    20     8    27    1
    21     9    14    1
    22     9    20    1
    23     9    21    1
    24    10    11    1
    25    10    28    1
    26    10    29    1
    27    11    15    1
    28    11    18    1
    29    11    30    1
    30    12    15    1
    31    12    31    1
    32    12    32    1
    33    13    16    1
    34    13    33    1
    35    13    34    1
    36    14    16    1
    37    14    35    1
    38    14    36    1
    39    15    22    2
    40    16    37    1
    41    16    38    1
    42    17    18    1
    43    17    39    1
    44    18    40    1
    45    18    41    1
    46    19    42    1
    47    19    43    1
    48    19    44    1
    49    20    45    1
    50    20    46    1
    51    20    47    1
    52    22    48    1
    53    22    49    1
