@<TRIPOS>MOLECULE
IMPHY000504
 12 12 0 0 0
SMALL
GASTEIGER

@<TRIPOS>ATOM
      1 C           1.8660   -3.5000    0.0000 C.2     1  UNL1       -0.0024
      2 C           0.0000    1.7321    0.0000 C.3     1  UNL1        0.0321
      3 C           1.0000    1.7321    0.0000 C.3     1  UNL1        0.0321
      4 C           3.2321   -1.1340    0.0000 C.3     1  UNL1        0.0375
      5 C           2.7321   -3.0000    0.0000 C.2     1  UNL1        0.0033
      6 C           1.8660   -0.5000    0.0000 C.3     1  UNL1        0.0348
      7 C           1.8660   -1.5000    0.0000 C.3     1  UNL1        0.0372
      8 C           1.0000    0.0000    0.0000 C.3     1  UNL1        0.1398
      9 C           0.5000    0.8660    0.0000 C.3     1  UNL1        0.1176
     10 C           2.7321   -2.0000    0.0000 C.3     1  UNL1        0.1452
     11 O           3.7321   -2.0000    0.0000 O.3     1  UNL1       -0.2212
     12 O           0.0000    0.0000    0.0000 O.3     1  UNL1       -0.3562
@<TRIPOS>BOND
     1     1     5    2
     2     2     9    1
     3     3     9    1
     4     4    10    1
     5     5    10    1
     6     6     7    1
     7     6     8    1
     8     7    10    1
     9     8     9    1
    10     8    12    1
    11     9    12    1
    12    10    11    1
