@<TRIPOS>MOLECULE
IMPHY016723
 27 27 0 0 0
SMALL
GASTEIGER

@<TRIPOS>ATOM
      1 C           3.7320    1.7500    0.0000 C.3     1  UNL1       -0.0215
      2 C           3.7320    0.7500    0.0000 C.ar    1  UNL1       -0.0445
      3 C           2.8660   -0.7500    0.0000 C.ar    1  UNL1       -0.0473
      4 C           2.8660    0.2500    0.0000 C.ar    1  UNL1       -0.0551
      5 C           4.5981    2.2500    0.0000 C.3     1  UNL1       -0.0586
      6 C           2.8660    2.2500    0.0000 C.3     1  UNL1       -0.0586
      7 C           4.5981    0.2500    0.0000 C.ar    1  UNL1       -0.0583
      8 C           2.0000   -1.2500    0.0000 C.3     1  UNL1       -0.0305
      9 C           3.7320   -1.2500    0.0000 C.ar    1  UNL1       -0.0586
     10 C           4.5981   -0.7500    0.0000 C.ar    1  UNL1       -0.0612
     11 C           2.0000   -2.2500    0.0000 C.3     1  UNL1       -0.0613
     12 H           3.7320    2.3700    0.0000 H       1  UNL1        0.0343
     13 H           2.3291    0.5600    0.0000 H       1  UNL1        0.0623
     14 H           4.9081    1.7131    0.0000 H       1  UNL1        0.0235
     15 H           5.1350    2.5600    0.0000 H       1  UNL1        0.0235
     16 H           4.2881    2.7869    0.0000 H       1  UNL1        0.0235
     17 H           3.1760    2.7869    0.0000 H       1  UNL1        0.0235
     18 H           2.3291    2.5600    0.0000 H       1  UNL1        0.0235
     19 H           2.5560    1.7131    0.0000 H       1  UNL1        0.0235
     20 H           5.1350    0.5600    0.0000 H       1  UNL1        0.0620
     21 H           1.7880   -0.6674    0.0000 H       1  UNL1        0.0311
     22 H           1.3894   -1.3577    0.0000 H       1  UNL1        0.0311
     23 H           3.7320   -1.8700    0.0000 H       1  UNL1        0.0620
     24 H           5.1350   -1.0600    0.0000 H       1  UNL1        0.0618
     25 H           1.3800   -2.2500    0.0000 H       1  UNL1        0.0233
     26 H           2.0000   -2.8700    0.0000 H       1  UNL1        0.0233
     27 H           2.6200   -2.2500    0.0000 H       1  UNL1        0.0233
@<TRIPOS>BOND
     1     1     2    1
     2     1     5    1
     3     1     6    1
     4     1    12    1
     5     2     4   ar
     6     2     7   ar
     7     3     4   ar
     8     3     8    1
     9     3     9   ar
    10     4    13    1
    11     5    14    1
    12     5    15    1
    13     5    16    1
    14     6    17    1
    15     6    18    1
    16     6    19    1
    17     7    10   ar
    18     7    20    1
    19     8    11    1
    20     8    21    1
    21     8    22    1
    22     9    10   ar
    23     9    23    1
    24    10    24    1
    25    11    25    1
    26    11    26    1
    27    11    27    1
