@<TRIPOS>MOLECULE
IMPHY001460
 22 24 0 0 0
SMALL
GASTEIGER

@<TRIPOS>ATOM
      1 O           7.3424    0.8047    0.0000 O.3     1  UNL1       -0.4912
      2 O           3.7702    1.0347    0.0000 O.2     1  UNL1       -0.4220
      3 O           2.0000    1.0241    0.0000 O.2     1  UNL1       -0.2452
      4 C           6.3961   -0.5000    0.0000 C.ar    1  UNL1       -0.0017
      5 C           7.3424   -0.8047    0.0000 C.3     1  UNL1        0.0101
      6 C           6.3961    0.5000    0.0000 C.ar    1  UNL1        0.1273
      7 C           7.9260    0.0000    0.0000 C.3     1  UNL1        0.0937
      8 C           5.5301   -1.0000    0.0000 C.ar    1  UNL1       -0.0443
      9 C           4.6641   -0.5000    0.0000 C.ar    1  UNL1        0.0181
     10 C           5.5301    1.0000    0.0000 C.ar    1  UNL1        0.0234
     11 C           4.6641    0.5000    0.0000 C.ar    1  UNL1        0.1425
     12 C           3.7702   -1.0347    0.0000 C.ar    1  UNL1       -0.0443
     13 C           2.8641   -0.5208    0.0000 C.ar    1  UNL1        0.0236
     14 C           2.8641    0.5208    0.0000 C.ar    1  UNL1        0.3372
     15 H           7.0913   -1.3716    0.0000 H       1  UNL1        0.0347
     16 H           7.8798   -1.1140    0.0000 H       1  UNL1        0.0347
     17 H           8.3869   -0.4147    0.0000 H       1  UNL1        0.0700
     18 H           8.3869    0.4147    0.0000 H       1  UNL1        0.0700
     19 H           5.5301   -1.6200    0.0000 H       1  UNL1        0.0628
     20 H           5.5301    1.6200    0.0000 H       1  UNL1        0.0691
     21 H           3.7773   -1.6546    0.0000 H       1  UNL1        0.0627
     22 H           2.3284   -0.8329    0.0000 H       1  UNL1        0.0689
@<TRIPOS>BOND
     1     1     6    1
     2     1     7    1
     3     2    11   ar
     4     2    14   ar
     5     3    14    2
     6     4     5    1
     7     4     6   ar
     8     4     8   ar
     9     5     7    1
    10     5    15    1
    11     5    16    1
    12     6    10   ar
    13     7    17    1
    14     7    18    1
    15     8     9   ar
    16     8    19    1
    17     9    11   ar
    18     9    12   ar
    19    10    11   ar
    20    10    20    1
    21    12    13   ar
    22    12    21    1
    23    13    14   ar
    24    13    22    1
