@<TRIPOS>MOLECULE
IMPHY005102
 106 110 0 0 0
SMALL
GASTEIGER

@<TRIPOS>ATOM
      1 O          10.3312   -2.7500    0.0000 O.3     1  UNL1       -0.3378
      2 O          10.3312    0.2500    0.0000 O.3     1  UNL1       -0.3384
      3 O          12.0632   -2.7500    0.0000 O.3     1  UNL1       -0.3431
      4 O           8.5991   -1.7500    0.0000 O.3     1  UNL1       -0.4528
      5 O           8.5991    1.2500    0.0000 O.3     1  UNL1       -0.3460
      6 O          12.0632   -1.7500    0.0000 O.3     1  UNL1       -0.4536
      7 O          12.0632    0.2500    0.0000 O.3     1  UNL1       -0.3475
      8 O           6.8671    1.2500    0.0000 O.3     1  UNL1       -0.3405
      9 O          10.3312   -4.7500    0.0000 O.3     1  UNL1       -0.3841
     10 O          12.0632   -5.7500    0.0000 O.3     1  UNL1       -0.3864
     11 O          13.7953   -4.7500    0.0000 O.3     1  UNL1       -0.3866
     12 O           8.5991    3.2500    0.0000 O.3     1  UNL1       -0.3841
     13 O           6.8671    4.2500    0.0000 O.3     1  UNL1       -0.3864
     14 O           5.1350    3.2500    0.0000 O.3     1  UNL1       -0.3865
     15 O           4.2690    1.7500    0.0000 O.3     1  UNL1       -0.3924
     16 O           7.7331   -0.2500    0.0000 O.2     1  UNL1       -0.2456
     17 O          12.9292   -0.2500    0.0000 O.2     1  UNL1       -0.2512
     18 O          14.6613    4.7500    0.0000 O.3     1  UNL1       -0.5033
     19 O          12.9292    5.7500    0.0000 O.3     1  UNL1       -0.5033
     20 O           2.5369   -1.2500    0.0000 O.3     1  UNL1       -0.5033
     21 O           2.5369   -3.2500    0.0000 O.3     1  UNL1       -0.5033
     22 C          10.3312   -1.7500    0.0000 C.3     1  UNL1        0.1426
     23 C           9.4651   -1.2500    0.0000 C.3     1  UNL1        0.1612
     24 C           9.4651   -0.2500    0.0000 C.3     1  UNL1        0.1245
     25 C          11.1972   -1.2500    0.0000 C.3     1  UNL1        0.1830
     26 C          11.1972   -0.2500    0.0000 C.3     1  UNL1        0.1993
     27 C          11.1972   -3.2500    0.0000 C.3     1  UNL1        0.1884
     28 C          11.1972   -4.2500    0.0000 C.3     1  UNL1        0.1341
     29 C           8.5991    0.2500    0.0000 C.3     1  UNL1        0.0806
     30 C          12.0632   -4.7500    0.0000 C.3     1  UNL1        0.1140
     31 C          12.9292   -4.2500    0.0000 C.3     1  UNL1        0.1095
     32 C          12.9292   -3.2500    0.0000 C.3     1  UNL1        0.0873
     33 C           7.7331    1.7500    0.0000 C.3     1  UNL1        0.1880
     34 C           7.7331    2.7500    0.0000 C.3     1  UNL1        0.1341
     35 C           6.8671    3.2500    0.0000 C.3     1  UNL1        0.1141
     36 C           6.0010    2.7500    0.0000 C.3     1  UNL1        0.1119
     37 C           6.0010    1.7500    0.0000 C.3     1  UNL1        0.1130
     38 C          13.7953   -2.7500    0.0000 C.3     1  UNL1       -0.0361
     39 C          12.0632    1.2500    0.0000 C.3     1  UNL1        0.0548
     40 C           5.1350    1.2500    0.0000 C.3     1  UNL1        0.0730
     41 C           7.7331   -1.2500    0.0000 C.2     1  UNL1        0.3324
     42 C          12.9292   -1.2500    0.0000 C.2     1  UNL1        0.3044
     43 C          12.9292    1.7500    0.0000 C.3     1  UNL1       -0.0039
     44 C          13.7953   -1.7500    0.0000 C.3     1  UNL1        0.0332
     45 C           6.8671   -1.7500    0.0000 C.2     1  UNL1        0.0231
     46 C          12.9292    2.7500    0.0000 C.ar    1  UNL1       -0.0415
     47 C           6.0010   -1.2500    0.0000 C.2     1  UNL1       -0.0477
     48 C          13.7953    3.2500    0.0000 C.ar    1  UNL1       -0.0133
     49 C          12.0632    3.2500    0.0000 C.ar    1  UNL1       -0.0548
     50 C           5.1350   -1.7500    0.0000 C.ar    1  UNL1       -0.0211
     51 C          13.7953    4.2500    0.0000 C.ar    1  UNL1        0.1585
     52 C          12.0632    4.2500    0.0000 C.ar    1  UNL1       -0.0163
     53 C          12.9292    4.7500    0.0000 C.ar    1  UNL1        0.1582
     54 C           4.2690   -1.2500    0.0000 C.ar    1  UNL1       -0.0094
     55 C           5.1350   -2.7500    0.0000 C.ar    1  UNL1       -0.0509
     56 C           3.4030   -1.7500    0.0000 C.ar    1  UNL1        0.1588
     57 C           4.2690   -3.2500    0.0000 C.ar    1  UNL1       -0.0160
     58 C           3.4030   -2.7500    0.0000 C.ar    1  UNL1        0.1582
     59 H           9.7942   -2.0600    0.0000 H       1  UNL1        0.0674
     60 H           8.9282   -0.9400    0.0000 H       1  UNL1        0.0789
     61 H           9.4651    0.3700    0.0000 H       1  UNL1        0.0658
     62 H          11.7341   -0.9400    0.0000 H       1  UNL1        0.0813
     63 H          11.1972    0.3700    0.0000 H       1  UNL1        0.0949
     64 H          11.1972   -2.6300    0.0000 H       1  UNL1        0.0938
     65 H          11.1972   -4.8700    0.0000 H       1  UNL1        0.0671
     66 H           7.9885    0.3577    0.0000 H       1  UNL1        0.0588
     67 H           8.3871   -0.3326    0.0000 H       1  UNL1        0.0588
     68 H          12.6002   -5.0600    0.0000 H       1  UNL1        0.0648
     69 H          13.4662   -3.9400    0.0000 H       1  UNL1        0.0646
     70 H          12.9292   -2.6300    0.0000 H       1  UNL1        0.0621
     71 H           7.7331    1.1300    0.0000 H       1  UNL1        0.0937
     72 H           8.2700    2.4400    0.0000 H       1  UNL1        0.0671
     73 H           7.4040    3.5600    0.0000 H       1  UNL1        0.0648
     74 H           6.0010    3.3700    0.0000 H       1  UNL1        0.0647
     75 H           6.0010    1.1300    0.0000 H       1  UNL1        0.0647
     76 H          14.1053   -3.2869    0.0000 H       1  UNL1        0.0255
     77 H          14.3322   -2.4400    0.0000 H       1  UNL1        0.0255
     78 H          13.4853   -2.2131    0.0000 H       1  UNL1        0.0255
     79 H          10.3312   -5.3700    0.0000 H       1  UNL1        0.2101
     80 H          11.8512    1.8326    0.0000 H       1  UNL1        0.0564
     81 H          11.4526    1.1423    0.0000 H       1  UNL1        0.0564
     82 H           4.7365    0.7751    0.0000 H       1  UNL1        0.0584
     83 H           5.5335    0.7751    0.0000 H       1  UNL1        0.0584
     84 H          12.6002   -6.0600    0.0000 H       1  UNL1        0.2100
     85 H          14.3322   -4.4400    0.0000 H       1  UNL1        0.2100
     86 H           8.5991    3.8700    0.0000 H       1  UNL1        0.2101
     87 H           6.3301    4.5600    0.0000 H       1  UNL1        0.2100
     88 H          13.1413    1.1674    0.0000 H       1  UNL1        0.0335
     89 H          13.5398    1.8577    0.0000 H       1  UNL1        0.0335
     90 H           5.1350    3.8700    0.0000 H       1  UNL1        0.2100
     91 H          13.4853   -2.2869    0.0000 H       1  UNL1        0.0342
     92 H          14.3322   -2.0600    0.0000 H       1  UNL1        0.0342
     93 H          14.1053   -1.2131    0.0000 H       1  UNL1        0.0342
     94 H           6.8671   -2.3700    0.0000 H       1  UNL1        0.0689
     95 H           3.7320    1.4400    0.0000 H       1  UNL1        0.2095
     96 H           6.0010   -0.6300    0.0000 H       1  UNL1        0.0626
     97 H          14.3322    2.9400    0.0000 H       1  UNL1        0.0658
     98 H          11.5263    2.9400    0.0000 H       1  UNL1        0.0621
     99 H          11.5263    4.5600    0.0000 H       1  UNL1        0.0655
    100 H           4.2690   -0.6300    0.0000 H       1  UNL1        0.0661
    101 H           5.6720   -3.0600    0.0000 H       1  UNL1        0.0625
    102 H          15.1982    4.4400    0.0000 H       1  UNL1        0.2923
    103 H           4.2690   -3.8700    0.0000 H       1  UNL1        0.0655
    104 H          12.3923    6.0600    0.0000 H       1  UNL1        0.2923
    105 H           2.0000   -1.5600    0.0000 H       1  UNL1        0.2923
    106 H           2.5369   -3.8700    0.0000 H       1  UNL1        0.2923
@<TRIPOS>BOND
     1    22     1    1
     2    27     1    1
     3     2    24    1
     4     2    26    1
     5     3    27    1
     6     3    32    1
     7    23     4    1
     8     4    41    1
     9     5    29    1
    10    33     5    1
    11    25     6    1
    12     6    42    1
    13    26     7    1
    14     7    39    1
    15     8    33    1
    16     8    37    1
    17    28     9    1
    18     9    79    1
    19    30    10    1
    20    10    84    1
    21    31    11    1
    22    11    85    1
    23    34    12    1
    24    12    86    1
    25    35    13    1
    26    13    87    1
    27    36    14    1
    28    14    90    1
    29    15    40    1
    30    15    95    1
    31    16    41    2
    32    17    42    2
    33    18    51    1
    34    18   102    1
    35    19    53    1
    36    19   104    1
    37    20    56    1
    38    20   105    1
    39    21    58    1
    40    21   106    1
    41    22    23    1
    42    22    25    1
    43    22    59    1
    44    23    24    1
    45    23    60    1
    46    24    29    1
    47    24    61    1
    48    25    26    1
    49    25    62    1
    50    26    63    1
    51    27    28    1
    52    27    64    1
    53    28    30    1
    54    28    65    1
    55    29    66    1
    56    29    67    1
    57    30    31    1
    58    30    68    1
    59    31    32    1
    60    31    69    1
    61    32    38    1
    62    32    70    1
    63    33    34    1
    64    33    71    1
    65    34    35    1
    66    34    72    1
    67    35    36    1
    68    35    73    1
    69    36    37    1
    70    36    74    1
    71    37    40    1
    72    37    75    1
    73    38    76    1
    74    38    77    1
    75    38    78    1
    76    39    43    1
    77    39    80    1
    78    39    81    1
    79    40    82    1
    80    40    83    1
    81    41    45    1
    82    42    44    1
    83    43    46    1
    84    43    88    1
    85    43    89    1
    86    44    91    1
    87    44    92    1
    88    44    93    1
    89    45    47    2
    90    45    94    1
    91    46    48   ar
    92    46    49   ar
    93    47    50    1
    94    47    96    1
    95    48    51   ar
    96    48    97    1
    97    49    52   ar
    98    49    98    1
    99    50    54   ar
   100    50    55   ar
   101    51    53   ar
   102    52    53   ar
   103    52    99    1
   104    54    56   ar
   105    54   100    1
   106    55    57   ar
   107    55   101    1
   108    56    58   ar
   109    57    58   ar
   110    57   103    1
