@<TRIPOS>MOLECULE
IMPHY004732
 54 57 0 0 0
SMALL
GASTEIGER

@<TRIPOS>ATOM
      1 O           5.9065    2.1947    0.0000 O.2     1  UNL1       -0.4537
      2 O           8.0505    4.2632    0.0000 O.2     1  UNL1       -0.4214
      3 O          10.6901    1.9190    0.0000 O.3     1  UNL1       -0.5064
      4 O           6.7634    5.4221    0.0000 O.2     1  UNL1       -0.2444
      5 O           2.4170    3.0989    0.0000 O.3     1  UNL1       -0.5066
      6 C           7.6904    2.5690    0.0000 C.ar    1  UNL1        0.0609
      7 C           6.7123    2.7769    0.0000 C.ar    1  UNL1        0.1538
      8 C           6.4033    3.7279    0.0000 C.ar    1  UNL1        0.1128
      9 C           9.0142    1.3491    0.0000 C.ar    1  UNL1       -0.0013
     10 C           5.4092    3.7254    0.0000 C.ar    1  UNL1        0.0351
     11 C           8.3596    3.3121    0.0000 C.ar    1  UNL1        0.1461
     12 C           7.9970    1.5735    0.0000 C.ar    1  UNL1       -0.0406
     13 C           9.3195    0.3968    0.0000 C.3     1  UNL1       -0.0058
     14 C           5.1028    2.7797    0.0000 C.ar    1  UNL1        0.1400
     15 C           9.7112    2.1231    0.0000 C.ar    1  UNL1        0.1238
     16 C           9.3816    3.1113    0.0000 C.ar    1  UNL1        0.0233
     17 C           7.0724    4.4711    0.0000 C.ar    1  UNL1        0.3488
     18 C           8.9529   -1.2960    0.0000 C.2     1  UNL1       -0.0759
     19 C           8.6475   -0.3437    0.0000 C.2     1  UNL1       -0.0806
     20 C           8.2809   -2.0365    0.0000 C.3     1  UNL1       -0.0286
     21 C           4.7276    4.5049    0.0000 C.ar    1  UNL1       -0.0467
     22 C           8.5862   -2.9888    0.0000 C.3     1  UNL1       -0.0308
     23 C           4.0936    2.5479    0.0000 C.ar    1  UNL1        0.0228
     24 C           3.7133    4.2965    0.0000 C.ar    1  UNL1       -0.0194
     25 C           3.3942    3.3114    0.0000 C.ar    1  UNL1        0.1204
     26 C           9.9302   -1.5077    0.0000 C.3     1  UNL1       -0.0438
     27 C           7.9142   -3.7293    0.0000 C.2     1  UNL1       -0.0850
     28 C           8.2196   -4.6816    0.0000 C.2     1  UNL1       -0.0796
     29 C           7.5476   -5.4221    0.0000 C.3     1  UNL1       -0.0440
     30 C           9.1969   -4.8933    0.0000 C.3     1  UNL1       -0.0440
     31 H           7.5768    1.1176    0.0000 H       1  UNL1        0.0630
     32 H           9.6993   -0.0932    0.0000 H       1  UNL1        0.0357
     33 H           9.8681    0.6858    0.0000 H       1  UNL1        0.0357
     34 H           9.7912    3.5768    0.0000 H       1  UNL1        0.0691
     35 H           8.0416   -0.2125    0.0000 H       1  UNL1        0.0575
     36 H           7.9011   -1.5465    0.0000 H       1  UNL1        0.0313
     37 H           7.7323   -2.3255    0.0000 H       1  UNL1        0.0313
     38 H           4.9255    5.0924    0.0000 H       1  UNL1        0.0626
     39 H           8.9660   -3.4788    0.0000 H       1  UNL1        0.0310
     40 H           9.1348   -2.6998    0.0000 H       1  UNL1        0.0310
     41 H           3.9094    1.9559    0.0000 H       1  UNL1        0.0691
     42 H           3.2998    4.7585    0.0000 H       1  UNL1        0.0654
     43 H           9.7990   -2.1136    0.0000 H       1  UNL1        0.0274
     44 H          10.5362   -1.6389    0.0000 H       1  UNL1        0.0274
     45 H          10.0615   -0.9017    0.0000 H       1  UNL1        0.0274
     46 H           7.3083   -3.5981    0.0000 H       1  UNL1        0.0572
     47 H          11.1032    2.3814    0.0000 H       1  UNL1        0.2921
     48 H           7.0884   -5.0055    0.0000 H       1  UNL1        0.0274
     49 H           9.0657   -5.4992    0.0000 H       1  UNL1        0.0274
     50 H           9.8029   -5.0245    0.0000 H       1  UNL1        0.0274
     51 H           9.3282   -4.2873    0.0000 H       1  UNL1        0.0274
     52 H           7.1310   -5.8813    0.0000 H       1  UNL1        0.0274
     53 H           8.0068   -5.8388    0.0000 H       1  UNL1        0.0274
     54 H           2.0000    3.5577    0.0000 H       1  UNL1        0.2921
@<TRIPOS>BOND
     1     1     7   ar
     2     1    14   ar
     3     2    11   ar
     4     2    17   ar
     5     3    15    1
     6     3    47    1
     7     4    17    2
     8     5    25    1
     9     5    54    1
    10     6     7   ar
    11     6    11   ar
    12     6    12   ar
    13     7     8   ar
    14     8    10   ar
    15     8    17   ar
    16     9    12   ar
    17     9    13    1
    18     9    15   ar
    19    10    14   ar
    20    10    21   ar
    21    11    16   ar
    22    12    31    1
    23    13    19    1
    24    13    32    1
    25    13    33    1
    26    14    23   ar
    27    15    16   ar
    28    16    34    1
    29    18    19    2
    30    18    20    1
    31    18    26    1
    32    19    35    1
    33    20    22    1
    34    20    36    1
    35    20    37    1
    36    21    24   ar
    37    21    38    1
    38    22    27    1
    39    22    39    1
    40    22    40    1
    41    23    25   ar
    42    23    41    1
    43    24    25   ar
    44    24    42    1
    45    26    43    1
    46    26    44    1
    47    26    45    1
    48    27    28    2
    49    27    46    1
    50    28    29    1
    51    28    30    1
    52    29    48    1
    53    29    52    1
    54    29    53    1
    55    30    49    1
    56    30    50    1
    57    30    51    1
