@<TRIPOS>MOLECULE
IMPHY008657
 56 56 0 0 0
SMALL
GASTEIGER

@<TRIPOS>ATOM
      1 O           8.5991    0.2500    0.0000 O.3     1  UNL1       -0.3914
      2 O           7.7331    1.7500    0.0000 O.2     1  UNL1       -0.2973
      3 O           4.2690    5.7500    0.0000 O.3     1  UNL1       -0.4915
      4 O           2.5369    4.7500    0.0000 O.3     1  UNL1       -0.5033
      5 C           8.5991   -1.7500    0.0000 C.3     1  UNL1       -0.0507
      6 C           8.5991   -2.7500    0.0000 C.3     1  UNL1       -0.0530
      7 C           7.7331   -1.2500    0.0000 C.3     1  UNL1       -0.0265
      8 C           9.4651   -3.2500    0.0000 C.3     1  UNL1       -0.0531
      9 C           7.7331   -0.2500    0.0000 C.3     1  UNL1        0.0619
     10 C           9.4651   -4.2500    0.0000 C.3     1  UNL1       -0.0531
     11 C           6.8671    0.2500    0.0000 C.3     1  UNL1        0.0319
     12 C          10.3312   -4.7500    0.0000 C.3     1  UNL1       -0.0533
     13 C           6.8671    1.2500    0.0000 C.2     1  UNL1        0.1361
     14 C          10.3312   -5.7500    0.0000 C.3     1  UNL1       -0.0559
     15 C           6.0010    1.7500    0.0000 C.3     1  UNL1        0.0099
     16 C           6.0010    2.7500    0.0000 C.3     1  UNL1       -0.0209
     17 C          11.1972   -6.2500    0.0000 C.3     1  UNL1       -0.0653
     18 C           5.1350    3.2500    0.0000 C.ar    1  UNL1       -0.0433
     19 C           5.1350    4.2500    0.0000 C.ar    1  UNL1       -0.0131
     20 C           4.2690    2.7500    0.0000 C.ar    1  UNL1       -0.0549
     21 C           4.2690    4.7500    0.0000 C.ar    1  UNL1        0.1615
     22 C           3.4030    3.2500    0.0000 C.ar    1  UNL1       -0.0163
     23 C           3.4030    4.2500    0.0000 C.ar    1  UNL1        0.1585
     24 C           5.1350    6.2500    0.0000 C.3     1  UNL1        0.0790
     25 H           9.2097   -1.8577    0.0000 H       1  UNL1        0.0266
     26 H           8.8112   -1.1674    0.0000 H       1  UNL1        0.0266
     27 H           7.9885   -2.6423    0.0000 H       1  UNL1        0.0265
     28 H           8.3871   -3.3326    0.0000 H       1  UNL1        0.0265
     29 H           7.1225   -1.1423    0.0000 H       1  UNL1        0.0290
     30 H           7.5210   -1.8326    0.0000 H       1  UNL1        0.0290
     31 H          10.0757   -3.3577    0.0000 H       1  UNL1        0.0265
     32 H           9.6772   -2.6674    0.0000 H       1  UNL1        0.0265
     33 H           7.7331    0.3700    0.0000 H       1  UNL1        0.0597
     34 H           8.8546   -4.1423    0.0000 H       1  UNL1        0.0265
     35 H           9.2531   -4.8326    0.0000 H       1  UNL1        0.0265
     36 H           6.2565    0.3577    0.0000 H       1  UNL1        0.0367
     37 H           6.6550   -0.3326    0.0000 H       1  UNL1        0.0367
     38 H          10.9417   -4.8577    0.0000 H       1  UNL1        0.0265
     39 H          10.5432   -4.1674    0.0000 H       1  UNL1        0.0265
     40 H           9.7206   -5.6423    0.0000 H       1  UNL1        0.0263
     41 H          10.1191   -6.3326    0.0000 H       1  UNL1        0.0263
     42 H           5.3905    1.8577    0.0000 H       1  UNL1        0.0345
     43 H           5.7890    1.1674    0.0000 H       1  UNL1        0.0345
     44 H           6.6116    2.6423    0.0000 H       1  UNL1        0.0317
     45 H           6.2131    3.3326    0.0000 H       1  UNL1        0.0317
     46 H           9.1360   -0.0600    0.0000 H       1  UNL1        0.2098
     47 H          10.8872   -6.7869    0.0000 H       1  UNL1        0.0230
     48 H          11.7341   -6.5600    0.0000 H       1  UNL1        0.0230
     49 H          11.5072   -5.7131    0.0000 H       1  UNL1        0.0230
     50 H           5.6720    4.5600    0.0000 H       1  UNL1        0.0658
     51 H           4.2690    2.1300    0.0000 H       1  UNL1        0.0621
     52 H           2.8660    2.9400    0.0000 H       1  UNL1        0.0655
     53 H           2.0000    4.4400    0.0000 H       1  UNL1        0.2923
     54 H           5.4450    5.7131    0.0000 H       1  UNL1        0.0660
     55 H           5.6720    6.5600    0.0000 H       1  UNL1        0.0660
     56 H           4.8250    6.7869    0.0000 H       1  UNL1        0.0660
@<TRIPOS>BOND
     1     9     1    1
     2     1    46    1
     3     2    13    2
     4     3    21    1
     5     3    24    1
     6     4    23    1
     7     4    53    1
     8     5     6    1
     9     5     7    1
    10     5    25    1
    11     5    26    1
    12     6     8    1
    13     6    27    1
    14     6    28    1
    15     7     9    1
    16     7    29    1
    17     7    30    1
    18     8    10    1
    19     8    31    1
    20     8    32    1
    21     9    11    1
    22     9    33    1
    23    10    12    1
    24    10    34    1
    25    10    35    1
    26    11    13    1
    27    11    36    1
    28    11    37    1
    29    12    14    1
    30    12    38    1
    31    12    39    1
    32    13    15    1
    33    14    17    1
    34    14    40    1
    35    14    41    1
    36    15    16    1
    37    15    42    1
    38    15    43    1
    39    16    18    1
    40    16    44    1
    41    16    45    1
    42    17    47    1
    43    17    48    1
    44    17    49    1
    45    18    19   ar
    46    18    20   ar
    47    19    21   ar
    48    19    50    1
    49    20    22   ar
    50    20    51    1
    51    21    23   ar
    52    22    23   ar
    53    22    52    1
    54    24    54    1
    55    24    55    1
    56    24    56    1
