@<TRIPOS>MOLECULE
IMPHY002218
 59 62 0 0 0
SMALL
GASTEIGER

@<TRIPOS>ATOM
      1 O           7.7925   -2.5159    0.0000 O.3     1  UNL1       -0.4607
      2 O           6.9464    2.0503    0.0000 O.3     1  UNL1       -0.4535
      3 O           5.1804    1.0125    0.0000 O.2     1  UNL1       -0.2931
      4 O           4.3198    0.5156    0.0000 O.2     1  UNL1       -0.2940
      5 O           2.5381   -0.4948    0.0000 O.3     1  UNL1       -0.3843
      6 O           9.5140   -2.5487    0.0000 O.2     1  UNL1       -0.2508
      7 O           8.6784    2.0569    0.0000 O.2     1  UNL1       -0.2511
      8 C           6.9343   -1.0190    0.0000 C.3     1  UNL1        0.0192
      9 C           6.0682   -0.5190    0.0000 C.3     1  UNL1        0.0426
     10 C           5.2022   -1.0190    0.0000 C.3     1  UNL1        0.0421
     11 C           5.2022   -2.0190    0.0000 C.3     1  UNL1       -0.0221
     12 C           7.8443   -0.5121    0.0000 C.3     1  UNL1       -0.0152
     13 C           6.9343   -2.0190    0.0000 C.3     1  UNL1        0.1096
     14 C           6.0682   -2.5190    0.0000 C.3     1  UNL1       -0.0111
     15 C           7.8523    0.5295    0.0000 C.3     1  UNL1        0.0043
     16 C           4.3083   -2.5537    0.0000 C.3     1  UNL1       -0.0373
     17 C           6.0522    0.5225    0.0000 C.2     1  UNL1        0.1784
     18 C           6.9502    1.0503    0.0000 C.3     1  UNL1        0.1636
     19 C           6.9343   -0.0190    0.0000 C.3     1  UNL1       -0.0552
     20 C           4.3083   -0.4843    0.0000 C.2     1  UNL1        0.1683
     21 C           8.6836   -1.0404    0.0000 C.3     1  UNL1        0.0488
     22 C           5.2022   -0.0190    0.0000 C.3     1  UNL1       -0.0518
     23 C           3.4022   -2.0398    0.0000 C.3     1  UNL1       -0.0170
     24 C           3.4022   -0.9982    0.0000 C.3     1  UNL1        0.1138
     25 C           8.6580   -2.0318    0.0000 C.2     1  UNL1        0.3076
     26 C           8.7202    1.0261    0.0000 C.3     1  UNL1       -0.0583
     27 C           4.3198   -3.5536    0.0000 C.3     1  UNL1       -0.0620
     28 C           7.8105    2.5536    0.0000 C.2     1  UNL1        0.3046
     29 C           7.8066    3.5536    0.0000 C.3     1  UNL1        0.0333
     30 H           5.3289   -0.0997    0.0000 H       1  UNL1        0.0395
     31 H           5.2088   -2.8690    0.0000 H       1  UNL1        0.0314
     32 H           8.5900   -0.1041    0.0000 H       1  UNL1        0.0316
     33 H           6.9337   -2.8690    0.0000 H       1  UNL1        0.0740
     34 H           5.6697   -2.9939    0.0000 H       1  UNL1        0.0304
     35 H           6.4668   -2.9939    0.0000 H       1  UNL1        0.0304
     36 H           8.3874    0.2164    0.0000 H       1  UNL1        0.0341
     37 H           3.7744   -2.8688    0.0000 H       1  UNL1        0.0302
     38 H           6.4115    1.3572    0.0000 H       1  UNL1        0.0817
     39 H           7.5543   -0.0190    0.0000 H       1  UNL1        0.0237
     40 H           6.9343    0.6010    0.0000 H       1  UNL1        0.0237
     41 H           6.3143   -0.0190    0.0000 H       1  UNL1        0.0237
     42 H           9.2907   -1.1663    0.0000 H       1  UNL1        0.0380
     43 H           8.9154   -0.4653    0.0000 H       1  UNL1        0.0380
     44 H           5.8222   -0.0190    0.0000 H       1  UNL1        0.0239
     45 H           5.2022    0.6010    0.0000 H       1  UNL1        0.0239
     46 H           4.5822   -0.0190    0.0000 H       1  UNL1        0.0239
     47 H           2.7914   -1.9337    0.0000 H       1  UNL1        0.0297
     48 H           3.1932   -2.6235    0.0000 H       1  UNL1        0.0297
     49 H           2.8647   -1.3071    0.0000 H       1  UNL1        0.0673
     50 H           9.0282    0.4880    0.0000 H       1  UNL1        0.0234
     51 H           9.2584    1.3340    0.0000 H       1  UNL1        0.0234
     52 H           8.4123    1.5642    0.0000 H       1  UNL1        0.0234
     53 H           3.6999   -3.5608    0.0000 H       1  UNL1        0.0233
     54 H           4.3270   -4.1736    0.0000 H       1  UNL1        0.0233
     55 H           4.9398   -3.5464    0.0000 H       1  UNL1        0.0233
     56 H           2.0000   -0.8028    0.0000 H       1  UNL1        0.2104
     57 H           8.4266    3.5560    0.0000 H       1  UNL1        0.0342
     58 H           7.8042    4.1736    0.0000 H       1  UNL1        0.0342
     59 H           7.1866    3.5512    0.0000 H       1  UNL1        0.0342
@<TRIPOS>BOND
     1     1    13    1
     2     1    25    1
     3    18     2    1
     4     2    28    1
     5     3    17    2
     6     4    20    2
     7    24     5    1
     8     5    56    1
     9     6    25    2
    10     7    28    2
    11     8     9    1
    12     8    12    1
    13     8    13    1
    14     8    19    1
    15     9    10    1
    16     9    17    1
    17     9    30    1
    18    10    11    1
    19    10    20    1
    20    10    22    1
    21    11    14    1
    22    11    16    1
    23    11    31    1
    24    12    15    1
    25    12    21    1
    26    12    32    1
    27    13    14    1
    28    13    33    1
    29    14    34    1
    30    14    35    1
    31    15    18    1
    32    15    26    1
    33    15    36    1
    34    16    23    1
    35    16    27    1
    36    16    37    1
    37    17    18    1
    38    18    38    1
    39    19    39    1
    40    19    40    1
    41    19    41    1
    42    20    24    1
    43    21    25    1
    44    21    42    1
    45    21    43    1
    46    22    44    1
    47    22    45    1
    48    22    46    1
    49    23    24    1
    50    23    47    1
    51    23    48    1
    52    24    49    1
    53    26    50    1
    54    26    51    1
    55    26    52    1
    56    27    53    1
    57    27    54    1
    58    27    55    1
    59    28    29    1
    60    29    57    1
    61    29    58    1
    62    29    59    1
