@<TRIPOS>MOLECULE
IMPHY004512
 56 56 0 0 0
SMALL
GASTEIGER

@<TRIPOS>ATOM
      1 O           4.2690   -2.3450    0.0000 O.3     1  UNL1       -0.3405
      2 O           6.0010   -2.3450    0.0000 O.3     1  UNL1       -0.3378
      3 O           4.2690   -5.3450    0.0000 O.3     1  UNL1       -0.3864
      4 O           2.5369   -4.3450    0.0000 O.3     1  UNL1       -0.3865
      5 O           6.0010   -4.3450    0.0000 O.3     1  UNL1       -0.3841
      6 O           2.5369   -1.3450    0.0000 O.3     1  UNL1       -0.3924
      7 O           4.2690   -1.3450    0.0000 O.3     1  UNL1       -0.3763
      8 O           8.5991    3.1550    0.0000 O.3     1  UNL1       -0.3950
      9 C           4.2690   -4.3450    0.0000 C.3     1  UNL1        0.1141
     10 C           3.4030   -3.8450    0.0000 C.3     1  UNL1        0.1119
     11 C           5.1350   -3.8450    0.0000 C.3     1  UNL1        0.1341
     12 C           3.4030   -2.8450    0.0000 C.3     1  UNL1        0.1130
     13 C           5.1350   -2.8450    0.0000 C.3     1  UNL1        0.1887
     14 C           2.5369   -2.3450    0.0000 C.3     1  UNL1        0.0730
     15 C           6.0010   -1.3450    0.0000 C.3     1  UNL1        0.1169
     16 C           5.1350   -0.8450    0.0000 C.3     1  UNL1        0.1460
     17 C           6.8671   -0.8450    0.0000 C.2     1  UNL1       -0.0560
     18 C           6.8671    0.1550    0.0000 C.2     1  UNL1       -0.0853
     19 C           7.7331    0.6550    0.0000 C.3     1  UNL1       -0.0326
     20 C           5.1350    0.1550    0.0000 C.1     1  UNL1       -0.0542
     21 C           7.7331    1.6550    0.0000 C.3     1  UNL1       -0.0263
     22 C           8.5991    2.1550    0.0000 C.3     1  UNL1        0.0445
     23 C           5.1350    1.1550    0.0000 C.1     1  UNL1       -0.0118
     24 C           5.1350    2.1550    0.0000 C.1     1  UNL1       -0.0101
     25 C           5.1350    3.1550    0.0000 C.1     1  UNL1       -0.0606
     26 C           5.1350    4.1550    0.0000 C.2     1  UNL1       -0.0148
     27 C           4.2690    4.6550    0.0000 C.2     1  UNL1       -0.0789
     28 C           4.2690    5.6550    0.0000 C.3     1  UNL1       -0.0459
     29 H           4.8059   -4.6550    0.0000 H       1  UNL1        0.0648
     30 H           3.4030   -4.4650    0.0000 H       1  UNL1        0.0647
     31 H           5.6720   -3.5350    0.0000 H       1  UNL1        0.0671
     32 H           3.4030   -2.2250    0.0000 H       1  UNL1        0.0647
     33 H           5.1350   -2.2250    0.0000 H       1  UNL1        0.0938
     34 H           1.9264   -2.2373    0.0000 H       1  UNL1        0.0584
     35 H           2.3249   -2.9276    0.0000 H       1  UNL1        0.0584
     36 H           6.5380   -1.6550    0.0000 H       1  UNL1        0.0677
     37 H           3.7320   -5.6550    0.0000 H       1  UNL1        0.2100
     38 H           2.0000   -4.0350    0.0000 H       1  UNL1        0.2100
     39 H           6.0010   -4.9650    0.0000 H       1  UNL1        0.2101
     40 H           4.5981   -0.5350    0.0000 H       1  UNL1        0.0761
     41 H           7.4040   -1.1550    0.0000 H       1  UNL1        0.0596
     42 H           2.0000   -1.0350    0.0000 H       1  UNL1        0.2095
     43 H           6.3301    0.4650    0.0000 H       1  UNL1        0.0570
     44 H           7.9451    0.0724    0.0000 H       1  UNL1        0.0308
     45 H           8.3437    0.7627    0.0000 H       1  UNL1        0.0308
     46 H           3.7320   -1.0350    0.0000 H       1  UNL1        0.2112
     47 H           7.5210    2.2376    0.0000 H       1  UNL1        0.0290
     48 H           7.1225    1.5473    0.0000 H       1  UNL1        0.0290
     49 H           8.8112    1.5724    0.0000 H       1  UNL1        0.0557
     50 H           9.2097    2.2627    0.0000 H       1  UNL1        0.0557
     51 H           9.1360    3.4650    0.0000 H       1  UNL1        0.2094
     52 H           5.6720    4.4650    0.0000 H       1  UNL1        0.0709
     53 H           3.7320    4.3450    0.0000 H       1  UNL1        0.0575
     54 H           4.8890    5.6550    0.0000 H       1  UNL1        0.0272
     55 H           4.2690    6.2750    0.0000 H       1  UNL1        0.0272
     56 H           3.6490    5.6550    0.0000 H       1  UNL1        0.0272
@<TRIPOS>BOND
     1     1    12    1
     2     1    13    1
     3    13     2    1
     4     2    15    1
     5     9     3    1
     6     3    37    1
     7    10     4    1
     8     4    38    1
     9    11     5    1
    10     5    39    1
    11     6    14    1
    12     6    42    1
    13     7    16    1
    14     7    46    1
    15     8    22    1
    16     8    51    1
    17     9    10    1
    18     9    11    1
    19     9    29    1
    20    10    12    1
    21    10    30    1
    22    11    13    1
    23    11    31    1
    24    12    14    1
    25    12    32    1
    26    13    33    1
    27    14    34    1
    28    14    35    1
    29    15    16    1
    30    15    17    1
    31    15    36    1
    32    16    20    1
    33    16    40    1
    34    17    18    2
    35    17    41    1
    36    18    19    1
    37    18    43    1
    38    19    21    1
    39    19    44    1
    40    19    45    1
    41    20    23    3
    42    21    22    1
    43    21    47    1
    44    21    48    1
    45    22    49    1
    46    22    50    1
    47    23    24    1
    48    24    25    3
    49    25    26    1
    50    26    27    2
    51    26    52    1
    52    27    28    1
    53    27    53    1
    54    28    54    1
    55    28    55    1
    56    28    56    1
