@<TRIPOS>MOLECULE
IMPHY014651
 47 48 0 0 0
SMALL
GASTEIGER

@<TRIPOS>ATOM
      1 O           5.1350   -0.3450    0.0000 O.3     1  UNL1       -0.3313
      2 O           6.8671   -0.3450    0.0000 O.3     1  UNL1       -0.4604
      3 O           5.1350   -3.3450    0.0000 O.3     1  UNL1       -0.3864
      4 O           3.4030   -2.3450    0.0000 O.3     1  UNL1       -0.3865
      5 O           6.8671   -2.3450    0.0000 O.3     1  UNL1       -0.3829
      6 O           2.5369   -0.8450    0.0000 O.3     1  UNL1       -0.3924
      7 O           8.5991    2.6550    0.0000 O.3     1  UNL1       -0.5064
      8 C           5.1350   -2.3450    0.0000 C.3     1  UNL1        0.1152
      9 C           4.2690   -1.8450    0.0000 C.3     1  UNL1        0.1120
     10 C           6.0010   -1.8450    0.0000 C.3     1  UNL1        0.1454
     11 C           4.2690   -0.8450    0.0000 C.3     1  UNL1        0.1140
     12 C           6.0010   -0.8450    0.0000 C.3     1  UNL1        0.2308
     13 C           3.4030   -0.3450    0.0000 C.3     1  UNL1        0.0731
     14 C           6.8671    0.6550    0.0000 C.ar    1  UNL1        0.1306
     15 C           6.0010    2.1550    0.0000 C.ar    1  UNL1       -0.0379
     16 C           7.7331    1.1550    0.0000 C.ar    1  UNL1        0.0327
     17 C           6.0010    1.1550    0.0000 C.ar    1  UNL1       -0.0159
     18 C           5.1350    2.6550    0.0000 C.3     1  UNL1       -0.0213
     19 C           7.7331    2.1550    0.0000 C.ar    1  UNL1        0.1235
     20 C           6.8671    2.6550    0.0000 C.ar    1  UNL1       -0.0163
     21 C           8.5991    0.6550    0.0000 C.3     1  UNL1       -0.0328
     22 C           5.1350    3.6550    0.0000 C.3     1  UNL1       -0.0586
     23 C           4.2690    2.1550    0.0000 C.3     1  UNL1       -0.0586
     24 H           4.5981   -2.6550    0.0000 H       1  UNL1        0.0648
     25 H           4.2690   -2.4650    0.0000 H       1  UNL1        0.0647
     26 H           6.0010   -2.4650    0.0000 H       1  UNL1        0.0683
     27 H           4.2690   -0.2250    0.0000 H       1  UNL1        0.0647
     28 H           6.0010   -0.2250    0.0000 H       1  UNL1        0.1084
     29 H           3.8015    0.1299    0.0000 H       1  UNL1        0.0584
     30 H           3.0044    0.1299    0.0000 H       1  UNL1        0.0584
     31 H           4.5981   -3.6550    0.0000 H       1  UNL1        0.2100
     32 H           3.4030   -2.9650    0.0000 H       1  UNL1        0.2100
     33 H           6.8671   -2.9650    0.0000 H       1  UNL1        0.2102
     34 H           5.4641    0.8450    0.0000 H       1  UNL1        0.0657
     35 H           5.1350    2.0350    0.0000 H       1  UNL1        0.0343
     36 H           2.0000   -0.5350    0.0000 H       1  UNL1        0.2095
     37 H           6.8671    3.2750    0.0000 H       1  UNL1        0.0657
     38 H           8.2891    0.1181    0.0000 H       1  UNL1        0.0280
     39 H           9.1360    0.3450    0.0000 H       1  UNL1        0.0280
     40 H           8.9091    1.1919    0.0000 H       1  UNL1        0.0280
     41 H           5.7550    3.6550    0.0000 H       1  UNL1        0.0235
     42 H           5.1350    4.2750    0.0000 H       1  UNL1        0.0235
     43 H           4.5150    3.6550    0.0000 H       1  UNL1        0.0235
     44 H           3.9590    2.6919    0.0000 H       1  UNL1        0.0235
     45 H           3.7320    1.8450    0.0000 H       1  UNL1        0.0235
     46 H           4.5790    1.6181    0.0000 H       1  UNL1        0.0235
     47 H           8.5991    3.2750    0.0000 H       1  UNL1        0.2921
@<TRIPOS>BOND
     1     1    11    1
     2     1    12    1
     3     2    12    1
     4     2    14    1
     5     8     3    1
     6     3    31    1
     7     9     4    1
     8     4    32    1
     9    10     5    1
    10     5    33    1
    11     6    13    1
    12     6    36    1
    13     7    19    1
    14     7    47    1
    15     8     9    1
    16     8    10    1
    17     8    24    1
    18     9    11    1
    19     9    25    1
    20    10    12    1
    21    10    26    1
    22    11    13    1
    23    11    27    1
    24    12    28    1
    25    13    29    1
    26    13    30    1
    27    14    16   ar
    28    14    17   ar
    29    15    17   ar
    30    15    18    1
    31    15    20   ar
    32    16    19   ar
    33    16    21    1
    34    17    34    1
    35    18    22    1
    36    18    23    1
    37    18    35    1
    38    19    20   ar
    39    20    37    1
    40    21    38    1
    41    21    39    1
    42    21    40    1
    43    22    41    1
    44    22    42    1
    45    22    43    1
    46    23    44    1
    47    23    45    1
    48    23    46    1
