@<TRIPOS>MOLECULE
IMPHY004444
 29 31 0 0 0
SMALL
GASTEIGER

@<TRIPOS>ATOM
      1 O           6.0290   -2.2419    0.0000 O.2     1  UNL1       -0.4220
      2 O           2.5369   -0.2072    0.0000 O.3     1  UNL1       -0.5033
      3 O           2.5369   -2.2072    0.0000 O.3     1  UNL1       -0.5032
      4 O           7.7991   -2.2314    0.0000 O.2     1  UNL1       -0.2452
      5 C           5.1350   -0.7072    0.0000 C.ar    1  UNL1        0.0290
      6 C           6.0290   -0.1726    0.0000 C.ar    1  UNL1       -0.0003
      7 C           5.1350   -1.7072    0.0000 C.ar    1  UNL1        0.1433
      8 C           6.0174    0.8274    0.0000 C.ar    1  UNL1       -0.0170
      9 C           4.2690   -0.2072    0.0000 C.ar    1  UNL1       -0.0053
     10 C           6.9350   -0.6864    0.0000 C.ar    1  UNL1        0.0313
     11 C           4.2690   -2.2072    0.0000 C.ar    1  UNL1        0.0265
     12 C           3.4030   -0.7072    0.0000 C.ar    1  UNL1        0.1590
     13 C           3.4030   -1.7072    0.0000 C.ar    1  UNL1        0.1618
     14 C           6.8776    1.3373    0.0000 C.ar    1  UNL1       -0.0540
     15 C           5.1456    1.3173    0.0000 C.ar    1  UNL1       -0.0540
     16 C           6.9350   -1.7280    0.0000 C.ar    1  UNL1        0.3378
     17 C           6.8660    2.3373    0.0000 C.ar    1  UNL1       -0.0612
     18 C           5.1341    2.3172    0.0000 C.ar    1  UNL1       -0.0612
     19 C           5.9943    2.8272    0.0000 C.ar    1  UNL1       -0.0617
     20 H           4.2690    0.4128    0.0000 H       1  UNL1        0.0662
     21 H           7.4708   -0.3743    0.0000 H       1  UNL1        0.0695
     22 H           4.2690   -2.8272    0.0000 H       1  UNL1        0.0692
     23 H           7.4181    1.0336    0.0000 H       1  UNL1        0.0624
     24 H           4.6123    1.0011    0.0000 H       1  UNL1        0.0624
     25 H           7.3993    2.6535    0.0000 H       1  UNL1        0.0618
     26 H           4.5936    2.6210    0.0000 H       1  UNL1        0.0618
     27 H           5.9871    3.4472    0.0000 H       1  UNL1        0.0618
     28 H           2.0000   -0.5172    0.0000 H       1  UNL1        0.2923
     29 H           2.5369   -2.8272    0.0000 H       1  UNL1        0.2923
@<TRIPOS>BOND
     1     1     7   ar
     2     1    16   ar
     3     2    12    1
     4     2    28    1
     5     3    13    1
     6     3    29    1
     7     4    16    2
     8     5     6   ar
     9     5     7   ar
    10     5     9   ar
    11     6     8    1
    12     6    10   ar
    13     7    11   ar
    14     8    14   ar
    15     8    15   ar
    16     9    12   ar
    17     9    20    1
    18    10    16   ar
    19    10    21    1
    20    11    13   ar
    21    11    22    1
    22    12    13   ar
    23    14    17   ar
    24    14    23    1
    25    15    18   ar
    26    15    24    1
    27    17    19   ar
    28    17    25    1
    29    18    19   ar
    30    18    26    1
    31    19    27    1
