@<TRIPOS>MOLECULE
IMPHY010936
 49 53 0 0 0
SMALL
GASTEIGER

@<TRIPOS>ATOM
      1 O           8.6639   -1.6693    0.0000 O.3     1  UNL1       -0.3312
      2 O           8.8652    0.2055    0.0000 O.3     1  UNL1       -0.4624
      3 O           6.0950   -1.7139    0.0000 O.3     1  UNL1       -0.4578
      4 O           5.5022    0.3379    0.0000 O.2     1  UNL1       -0.4542
      5 O           6.4595   -3.4071    0.0000 O.2     1  UNL1       -0.2512
      6 O           5.5138    3.4071    0.0000 O.2     1  UNL1       -0.2870
      7 C           7.4714   -0.5993    0.0000 C.3     1  UNL1        0.0932
      8 C           7.0726   -1.5034    0.0000 C.3     1  UNL1        0.1441
      9 C           7.8081   -2.1634    0.0000 C.3     1  UNL1        0.1054
     10 C           8.4601   -0.7023    0.0000 C.3     1  UNL1        0.2129
     11 C           7.2622    0.3725    0.0000 C.ar    1  UNL1        0.0499
     12 C           8.1282    0.8725    0.0000 C.ar    1  UNL1        0.1312
     13 C           8.3088   -3.0290    0.0000 C.3     1  UNL1       -0.0324
     14 C           7.1396   -2.9071    0.0000 C.3     1  UNL1       -0.0324
     15 C           6.3961    0.8725    0.0000 C.ar    1  UNL1        0.1465
     16 C           8.1282    1.8725    0.0000 C.ar    1  UNL1       -0.0186
     17 C           6.3961    1.8725    0.0000 C.ar    1  UNL1        0.0645
     18 C           7.2622    2.3725    0.0000 C.ar    1  UNL1       -0.0439
     19 C           5.7884   -2.6657    0.0000 C.2     1  UNL1        0.3043
     20 C           5.5022    2.4072    0.0000 C.ar    1  UNL1        0.1931
     21 C           4.5961    0.8517    0.0000 C.ar    1  UNL1        0.1392
     22 C           4.5961    1.8934    0.0000 C.ar    1  UNL1        0.0287
     23 C           4.8108   -2.8762    0.0000 C.3     1  UNL1        0.0332
     24 C           3.7320    0.3484    0.0000 C.ar    1  UNL1        0.0174
     25 C           2.8641    0.8450    0.0000 C.ar    1  UNL1       -0.0511
     26 C           3.7359   -0.6516    0.0000 C.ar    1  UNL1       -0.0511
     27 C           2.0000    0.3417    0.0000 C.ar    1  UNL1       -0.0611
     28 C           2.8718   -1.1549    0.0000 C.ar    1  UNL1       -0.0611
     29 C           2.0038   -0.6583    0.0000 C.ar    1  UNL1       -0.0617
     30 H           6.6258   -0.5130    0.0000 H       1  UNL1        0.0450
     31 H           6.6809   -1.0228    0.0000 H       1  UNL1        0.0771
     32 H           9.3053   -0.7923    0.0000 H       1  UNL1        0.1063
     33 H           7.7722   -3.3394    0.0000 H       1  UNL1        0.0258
     34 H           8.6193   -3.5656    0.0000 H       1  UNL1        0.0258
     35 H           8.8455   -2.7185    0.0000 H       1  UNL1        0.0258
     36 H           6.6785   -2.4926    0.0000 H       1  UNL1        0.0258
     37 H           6.7251   -3.3682    0.0000 H       1  UNL1        0.0258
     38 H           7.6007   -3.3216    0.0000 H       1  UNL1        0.0258
     39 H           8.6651    2.1825    0.0000 H       1  UNL1        0.0654
     40 H           7.2622    2.9925    0.0000 H       1  UNL1        0.0627
     41 H           4.0604    2.2054    0.0000 H       1  UNL1        0.0693
     42 H           4.6803   -2.2701    0.0000 H       1  UNL1        0.0342
     43 H           4.2047   -3.0067    0.0000 H       1  UNL1        0.0342
     44 H           4.9413   -3.4823    0.0000 H       1  UNL1        0.0342
     45 H           2.8617    1.4650    0.0000 H       1  UNL1        0.0625
     46 H           4.2740   -0.9595    0.0000 H       1  UNL1        0.0625
     47 H           1.4619    0.6496    0.0000 H       1  UNL1        0.0618
     48 H           2.8742   -1.7749    0.0000 H       1  UNL1        0.0618
     49 H           1.4681   -0.9703    0.0000 H       1  UNL1        0.0618
@<TRIPOS>BOND
     1     1     9    1
     2     1    10    1
     3     2    10    1
     4     2    12    1
     5     8     3    1
     6     3    19    1
     7     4    15   ar
     8     4    21   ar
     9     5    19    2
    10     6    20    2
    11     7     8    1
    12     7    10    1
    13     7    11    1
    14     7    30    1
    15     8     9    1
    16     8    31    1
    17     9    13    1
    18     9    14    1
    19    10    32    1
    20    11    12   ar
    21    11    15   ar
    22    12    16   ar
    23    13    33    1
    24    13    34    1
    25    13    35    1
    26    14    36    1
    27    14    37    1
    28    14    38    1
    29    15    17   ar
    30    16    18   ar
    31    16    39    1
    32    17    18   ar
    33    17    20   ar
    34    18    40    1
    35    19    23    1
    36    20    22   ar
    37    21    22   ar
    38    21    24    1
    39    22    41    1
    40    23    42    1
    41    23    43    1
    42    23    44    1
    43    24    25   ar
    44    24    26   ar
    45    25    27   ar
    46    25    45    1
    47    26    28   ar
    48    26    46    1
    49    27    29   ar
    50    27    47    1
    51    28    29   ar
    52    28    48    1
    53    29    49    1
