@<TRIPOS>MOLECULE
IMPHY003399
 76 81 0 0 0
SMALL
GASTEIGER

@<TRIPOS>ATOM
      1 O           6.3580    2.0016    0.0000 O.2     1  UNL1       -0.4537
      2 O           6.3301   -1.9637    0.0000 O.2     1  UNL1       -0.4544
      3 O           2.8660    2.0363    0.0000 O.3     1  UNL1       -0.4943
      4 O           4.5981    5.0363    0.0000 O.3     1  UNL1       -0.4942
      5 O           2.8660    1.0363    0.0000 O.3     1  UNL1       -0.4945
      6 O           6.3465    5.0709    0.0000 O.2     1  UNL1       -0.2869
      7 O           9.8324   -1.9606    0.0000 O.3     1  UNL1       -0.4942
      8 O           8.0743   -5.0330    0.0000 O.3     1  UNL1       -0.4949
      9 O           8.9282   -0.4637    0.0000 O.2     1  UNL1       -0.2869
     10 O          10.7205    0.5021    0.0000 O.3     1  UNL1       -0.4951
     11 C           4.5981    2.0363    0.0000 C.ar    1  UNL1        0.0704
     12 C           5.4641    2.5363    0.0000 C.ar    1  UNL1        0.1541
     13 C           4.5981    1.0363    0.0000 C.ar    1  UNL1        0.0315
     14 C           5.4641    3.5363    0.0000 C.ar    1  UNL1        0.1063
     15 C           3.7320    2.5363    0.0000 C.ar    1  UNL1        0.1349
     16 C           5.4641    0.5363    0.0000 C.ar    1  UNL1       -0.0396
     17 C           5.4641   -0.4637    0.0000 C.ar    1  UNL1        0.0182
     18 C           4.5981    4.0363    0.0000 C.ar    1  UNL1        0.1379
     19 C           3.7320    0.5363    0.0000 C.ar    1  UNL1        0.1280
     20 C           3.7320    3.5363    0.0000 C.ar    1  UNL1        0.0233
     21 C           6.3580    4.0710    0.0000 C.ar    1  UNL1        0.1966
     22 C           6.3301   -0.9637    0.0000 C.ar    1  UNL1        0.1392
     23 C           7.2641    2.5155    0.0000 C.ar    1  UNL1        0.1393
     24 C           4.5981   -0.9637    0.0000 C.ar    1  UNL1       -0.0476
     25 C           3.7320   -0.4637    0.0000 C.ar    1  UNL1       -0.0187
     26 C           7.2641    3.5571    0.0000 C.ar    1  UNL1        0.0288
     27 C           8.0622   -1.9637    0.0000 C.ar    1  UNL1        0.1057
     28 C           7.1962   -2.4637    0.0000 C.ar    1  UNL1        0.1462
     29 C           8.1282    2.0121    0.0000 C.ar    1  UNL1        0.0176
     30 C           7.1962   -0.4637    0.0000 C.ar    1  UNL1        0.0288
     31 C           8.0622   -0.9637    0.0000 C.ar    1  UNL1        0.1966
     32 C           8.9722   -2.4705    0.0000 C.ar    1  UNL1        0.1379
     33 C           7.1801   -3.5052    0.0000 C.ar    1  UNL1        0.0233
     34 C           8.1244    1.0122    0.0000 C.ar    1  UNL1       -0.0476
     35 C           8.9962    2.5088    0.0000 C.ar    1  UNL1       -0.0476
     36 C           8.0781   -4.0330    0.0000 C.ar    1  UNL1        0.1271
     37 C           8.9802   -3.5122    0.0000 C.ar    1  UNL1        0.0227
     38 C           2.0000    2.5363    0.0000 C.3     1  UNL1        0.0788
     39 C           8.9884    0.5088    0.0000 C.ar    1  UNL1       -0.0193
     40 C           9.8602    2.0055    0.0000 C.ar    1  UNL1       -0.0193
     41 C           3.7320    5.5363    0.0000 C.3     1  UNL1        0.0788
     42 C           2.0000    0.5363    0.0000 C.3     1  UNL1        0.0788
     43 C           9.8564    1.0055    0.0000 C.ar    1  UNL1        0.1201
     44 C          10.7041   -2.4505    0.0000 C.3     1  UNL1        0.0788
     45 C           8.9384   -5.5363    0.0000 C.3     1  UNL1        0.0788
     46 C          11.5884    0.9988    0.0000 C.3     1  UNL1        0.0788
     47 H           6.0010    0.8463    0.0000 H       1  UNL1        0.0632
     48 H           3.1951    3.8463    0.0000 H       1  UNL1        0.0691
     49 H           4.5981   -1.5837    0.0000 H       1  UNL1        0.0626
     50 H           3.1951   -0.7737    0.0000 H       1  UNL1        0.0654
     51 H           7.7998    3.8692    0.0000 H       1  UNL1        0.0693
     52 H           7.1962    0.1563    0.0000 H       1  UNL1        0.0693
     53 H           6.6396   -3.8090    0.0000 H       1  UNL1        0.0691
     54 H           7.5862    0.7042    0.0000 H       1  UNL1        0.0626
     55 H           8.9985    3.1288    0.0000 H       1  UNL1        0.0626
     56 H           9.5183   -3.8201    0.0000 H       1  UNL1        0.0691
     57 H           2.3100    3.0732    0.0000 H       1  UNL1        0.0660
     58 H           1.4631    2.8463    0.0000 H       1  UNL1        0.0660
     59 H           1.6900    1.9994    0.0000 H       1  UNL1        0.0660
     60 H           8.9860   -0.1112    0.0000 H       1  UNL1        0.0654
     61 H          10.3984    2.3134    0.0000 H       1  UNL1        0.0654
     62 H           4.0420    6.0732    0.0000 H       1  UNL1        0.0660
     63 H           3.1951    5.8463    0.0000 H       1  UNL1        0.0660
     64 H           3.4220    4.9994    0.0000 H       1  UNL1        0.0660
     65 H           1.6900    1.0732    0.0000 H       1  UNL1        0.0660
     66 H           1.4631    0.2263    0.0000 H       1  UNL1        0.0660
     67 H           2.3100   -0.0006    0.0000 H       1  UNL1        0.0660
     68 H          10.4003   -2.9910    0.0000 H       1  UNL1        0.0660
     69 H          11.2446   -2.7543    0.0000 H       1  UNL1        0.0660
     70 H          11.0079   -1.9100    0.0000 H       1  UNL1        0.0660
     71 H           8.6263   -6.0720    0.0000 H       1  UNL1        0.0660
     72 H           9.4741   -5.8484    0.0000 H       1  UNL1        0.0660
     73 H           9.2504   -5.0006    0.0000 H       1  UNL1        0.0660
     74 H          11.8964    0.4607    0.0000 H       1  UNL1        0.0660
     75 H          12.1266    1.3067    0.0000 H       1  UNL1        0.0660
     76 H          11.2805    1.5369    0.0000 H       1  UNL1        0.0660
@<TRIPOS>BOND
     1     1    12   ar
     2     1    23   ar
     3     2    22   ar
     4     2    28   ar
     5     3    15    1
     6     3    38    1
     7     4    18    1
     8     4    41    1
     9     5    19    1
    10     5    42    1
    11     6    21    2
    12     7    32    1
    13     7    44    1
    14     8    36    1
    15     8    45    1
    16     9    31    2
    17    10    43    1
    18    10    46    1
    19    11    12   ar
    20    11    13    1
    21    11    15   ar
    22    12    14   ar
    23    13    16   ar
    24    13    19   ar
    25    14    18   ar
    26    14    21   ar
    27    15    20   ar
    28    16    17   ar
    29    16    47    1
    30    17    22    1
    31    17    24   ar
    32    18    20   ar
    33    19    25   ar
    34    20    48    1
    35    21    26   ar
    36    22    30   ar
    37    23    26   ar
    38    23    29    1
    39    24    25   ar
    40    24    49    1
    41    25    50    1
    42    26    51    1
    43    27    28   ar
    44    27    31   ar
    45    27    32   ar
    46    28    33   ar
    47    29    34   ar
    48    29    35   ar
    49    30    31   ar
    50    30    52    1
    51    32    37   ar
    52    33    36   ar
    53    33    53    1
    54    34    39   ar
    55    34    54    1
    56    35    40   ar
    57    35    55    1
    58    36    37   ar
    59    37    56    1
    60    38    57    1
    61    38    58    1
    62    38    59    1
    63    39    43   ar
    64    39    60    1
    65    40    43   ar
    66    40    61    1
    67    41    62    1
    68    41    63    1
    69    41    64    1
    70    42    65    1
    71    42    66    1
    72    42    67    1
    73    44    68    1
    74    44    69    1
    75    44    70    1
    76    45    71    1
    77    45    72    1
    78    45    73    1
    79    46    74    1
    80    46    75    1
    81    46    76    1
