@<TRIPOS>MOLECULE
IMPHY000624
 64 71 0 0 0
SMALL
GASTEIGER

@<TRIPOS>ATOM
      1 O           6.0427   -1.2294    0.0000 O.3     1  UNL1       -0.4425
      2 O           6.9527   -2.7362    0.0000 O.3     1  UNL1       -0.4425
      3 O           2.5405   -1.2325    0.0000 O.3     1  UNL1       -0.5060
      4 O           7.7748   -3.2294    0.0000 O.3     1  UNL1       -0.5061
      5 O           3.4961    2.4266    0.0000 O.2     1  UNL1       -0.4547
      6 O           8.7850   -5.8874    0.0000 O.3     1  UNL1       -0.5066
      7 O           9.5068   -0.2294    0.0000 O.3     1  UNL1       -0.5066
      8 O           3.3145    5.9716    0.0000 O.3     1  UNL1       -0.5066
      9 C           6.0427   -2.2294    0.0000 C.3     1  UNL1        0.3121
     10 C           5.1767   -2.7294    0.0000 C.ar    1  UNL1        0.0569
     11 C           4.3107   -2.2294    0.0000 C.ar    1  UNL1        0.0009
     12 C           5.1606   -3.7709    0.0000 C.ar    1  UNL1       -0.0027
     13 C           4.3107   -1.2294    0.0000 C.ar    1  UNL1        0.0659
     14 C           6.9088   -1.7294    0.0000 C.ar    1  UNL1        0.0826
     15 C           6.0587   -4.2986    0.0000 C.ar    1  UNL1        0.0248
     16 C           5.1767   -0.7294    0.0000 C.ar    1  UNL1        0.1379
     17 C           6.9608   -3.7778    0.0000 C.ar    1  UNL1        0.1371
     18 C           3.4512   -2.7241    0.0000 C.ar    1  UNL1       -0.0503
     19 C           4.2835   -4.2336    0.0000 C.ar    1  UNL1       -0.0504
     20 C           3.4378   -3.7157    0.0000 C.ar    1  UNL1       -0.0493
     21 C           3.4007   -0.7225    0.0000 C.ar    1  UNL1        0.1287
     22 C           5.1928    0.3122    0.0000 C.ar    1  UNL1       -0.0083
     23 C           7.7748   -2.2294    0.0000 C.ar    1  UNL1        0.1312
     24 C           6.9088   -0.7294    0.0000 C.ar    1  UNL1       -0.0439
     25 C           6.0420   -5.3835    0.0000 C.ar    1  UNL1       -0.0471
     26 C           4.2947    0.8399    0.0000 C.ar    1  UNL1        0.0242
     27 C           7.9086   -4.3058    0.0000 C.ar    1  UNL1        0.0223
     28 C           3.3926    0.3191    0.0000 C.ar    1  UNL1       -0.0087
     29 C           2.5621   -4.1986    0.0000 C.3     1  UNL1       -0.0397
     30 C           6.9774   -5.9332    0.0000 C.ar    1  UNL1       -0.0194
     31 C           7.9170   -5.3907    0.0000 C.ar    1  UNL1        0.1204
     32 C           8.6408   -1.7294    0.0000 C.ar    1  UNL1        0.0218
     33 C           4.2986    1.8399    0.0000 C.ar    1  UNL1        0.1365
     34 C           7.7748   -0.2294    0.0000 C.ar    1  UNL1       -0.0194
     35 C           8.6408   -0.7294    0.0000 C.ar    1  UNL1        0.1203
     36 C           5.1056    2.4204    0.0000 C.ar    1  UNL1       -0.0081
     37 C           4.8045    3.3678    0.0000 C.ar    1  UNL1        0.0210
     38 C           3.8045    3.3716    0.0000 C.ar    1  UNL1        0.1391
     39 C           5.3078    4.2319    0.0000 C.ar    1  UNL1       -0.0475
     40 C           3.3078    4.2396    0.0000 C.ar    1  UNL1        0.0227
     41 C           3.8112    5.1037    0.0000 C.ar    1  UNL1        0.1204
     42 C           4.8111    5.0998    0.0000 C.ar    1  UNL1       -0.0194
     43 H           2.9166   -2.4102    0.0000 H       1  UNL1        0.0626
     44 H           4.2637   -4.8533    0.0000 H       1  UNL1        0.0626
     45 H           5.7332    0.6159    0.0000 H       1  UNL1        0.0661
     46 H           6.3718   -0.4194    0.0000 H       1  UNL1        0.0625
     47 H           5.5015   -5.6872    0.0000 H       1  UNL1        0.0626
     48 H           8.4420   -3.9896    0.0000 H       1  UNL1        0.0691
     49 H           2.8545    0.6270    0.0000 H       1  UNL1        0.0661
     50 H           2.2627   -3.6557    0.0000 H       1  UNL1        0.0278
     51 H           2.0191   -4.4980    0.0000 H       1  UNL1        0.0278
     52 H           2.8614   -4.7415    0.0000 H       1  UNL1        0.0278
     53 H           6.9750   -6.5532    0.0000 H       1  UNL1        0.0654
     54 H           9.1777   -2.0394    0.0000 H       1  UNL1        0.0691
     55 H           7.7748    0.3906    0.0000 H       1  UNL1        0.0654
     56 H           2.0000   -0.9287    0.0000 H       1  UNL1        0.2922
     57 H           5.6941    2.2255    0.0000 H       1  UNL1        0.0661
     58 H           8.3117   -3.5394    0.0000 H       1  UNL1        0.2922
     59 H           8.7873   -6.5074    0.0000 H       1  UNL1        0.2921
     60 H           5.9278    4.2295    0.0000 H       1  UNL1        0.0626
     61 H           2.6878    4.2420    0.0000 H       1  UNL1        0.0691
     62 H          10.0438   -0.5394    0.0000 H       1  UNL1        0.2921
     63 H           5.1232    5.6356    0.0000 H       1  UNL1        0.0654
     64 H           3.6266    6.5074    0.0000 H       1  UNL1        0.2921
@<TRIPOS>BOND
     1     1     9    1
     2     1    16    1
     3     2     9    1
     4     2    17    1
     5     3    21    1
     6     3    56    1
     7     4    23    1
     8     4    58    1
     9     5    33   ar
    10     5    38   ar
    11     6    31    1
    12     6    59    1
    13     7    35    1
    14     7    62    1
    15     8    41    1
    16     8    64    1
    17     9    10    1
    18     9    14    1
    19    10    11   ar
    20    10    12   ar
    21    11    13    1
    22    11    18   ar
    23    12    15    1
    24    12    19   ar
    25    13    16   ar
    26    13    21   ar
    27    14    23   ar
    28    14    24   ar
    29    15    17   ar
    30    15    25   ar
    31    16    22   ar
    32    17    27   ar
    33    18    20   ar
    34    18    43    1
    35    19    20   ar
    36    19    44    1
    37    20    29    1
    38    21    28   ar
    39    22    26   ar
    40    22    45    1
    41    23    32   ar
    42    24    34   ar
    43    24    46    1
    44    25    30   ar
    45    25    47    1
    46    26    28   ar
    47    26    33    1
    48    27    31   ar
    49    27    48    1
    50    28    49    1
    51    29    50    1
    52    29    51    1
    53    29    52    1
    54    30    31   ar
    55    30    53    1
    56    32    35   ar
    57    32    54    1
    58    33    36   ar
    59    34    35   ar
    60    34    55    1
    61    36    37   ar
    62    36    57    1
    63    37    38   ar
    64    37    39   ar
    65    38    40   ar
    66    39    42   ar
    67    39    60    1
    68    40    41   ar
    69    40    61    1
    70    41    42   ar
    71    42    63    1
