@<TRIPOS>MOLECULE
IMPHY002846
 118 123 0 0 0
SMALL
GASTEIGER

@<TRIPOS>ATOM
      1 O           9.5424    2.7172    0.0000 O.3     1  UNL1       -0.3910
      2 O           6.8671   -5.0350    0.0000 O.3     1  UNL1       -0.3448
      3 O           8.1184    4.7592    0.0000 O.3     1  UNL1       -0.3874
      4 O           6.8270    5.3584    0.0000 O.3     1  UNL1       -0.4549
      5 O           9.2663    4.0180    0.0000 O.3     1  UNL1       -0.3943
      6 O           9.3112   -4.3433    0.0000 O.3     1  UNL1       -0.3944
      7 O           5.1350   -5.0350    0.0000 O.3     1  UNL1       -0.3315
      8 O           6.8671   -7.0350    0.0000 O.3     1  UNL1       -0.3841
      9 O           5.0950    5.3450    0.0000 O.2     1  UNL1       -0.2453
     10 O           5.1350   -8.0350    0.0000 O.3     1  UNL1       -0.3864
     11 O           3.4030   -7.0350    0.0000 O.3     1  UNL1       -0.3860
     12 O           2.5369   -5.5350    0.0000 O.3     1  UNL1       -0.4788
     13 O           3.4030   -4.0350    0.0000 O.2     1  UNL1       -0.2480
     14 C           7.7681   -0.3347    0.0000 C.3     1  UNL1       -0.0193
     15 C           6.9040   -0.8381    0.0000 C.3     1  UNL1       -0.0257
     16 C           6.8920   -1.8796    0.0000 C.3     1  UNL1       -0.0249
     17 C           7.7643    0.6653    0.0000 C.3     1  UNL1       -0.0028
     18 C           7.7920   -2.4039    0.0000 C.3     1  UNL1       -0.0255
     19 C           8.6801   -0.8381    0.0000 C.3     1  UNL1       -0.0463
     20 C           6.8963    1.1619    0.0000 C.2     1  UNL1       -0.0631
     21 C           6.8762    2.2034    0.0000 C.3     1  UNL1       -0.0062
     22 C           7.7722    2.7346    0.0000 C.3     1  UNL1        0.0556
     23 C           8.6921   -1.8796    0.0000 C.3     1  UNL1       -0.0485
     24 C           7.8046   -3.4888    0.0000 C.3     1  UNL1        0.0206
     25 C           8.6723    1.1756    0.0000 C.3     1  UNL1       -0.0165
     26 C           6.0361   -0.3414    0.0000 C.3     1  UNL1       -0.0306
     27 C           5.9421   -2.4039    0.0000 C.3     1  UNL1       -0.0447
     28 C           8.6763    2.2172    0.0000 C.3     1  UNL1        0.0668
     29 C           8.7522   -0.1573    0.0000 C.3     1  UNL1       -0.0585
     30 C           6.8671   -4.0350    0.0000 C.3     1  UNL1        0.0695
     31 C           6.0322    0.6586    0.0000 C.2     1  UNL1       -0.0836
     32 C           6.0279   -1.3763    0.0000 C.3     1  UNL1       -0.0590
     33 C           5.9223    2.7203    0.0000 C.3     1  UNL1       -0.0371
     34 C           5.9295   -3.4888    0.0000 C.3     1  UNL1       -0.0254
     35 C           8.7497    0.4954    0.0000 C.3     1  UNL1       -0.0552
     36 C           7.7764    3.8196    0.0000 C.3     1  UNL1        0.1032
     37 C           5.9014    3.8051    0.0000 C.3     1  UNL1        0.0052
     38 C           6.8347    4.3584    0.0000 C.3     1  UNL1        0.1349
     39 C           8.6324    3.2446    0.0000 C.3     1  UNL1        0.0552
     40 C           8.8046   -3.4811    0.0000 C.3     1  UNL1        0.0522
     41 C           8.3113   -4.3510    0.0000 C.3     1  UNL1       -0.0548
     42 C           4.9015    3.7897    0.0000 C.3     1  UNL1       -0.0563
     43 C           5.3881    4.6633    0.0000 C.3     1  UNL1       -0.0563
     44 C           6.0010   -5.5350    0.0000 C.3     1  UNL1        0.1888
     45 C           6.0010   -6.5350    0.0000 C.3     1  UNL1        0.1341
     46 C           5.9572    5.8517    0.0000 C.2     1  UNL1        0.3349
     47 C           5.1350   -7.0350    0.0000 C.3     1  UNL1        0.1145
     48 C           4.2690   -5.5350    0.0000 C.3     1  UNL1        0.1859
     49 C           4.2690   -6.5350    0.0000 C.3     1  UNL1        0.1201
     50 C           5.9494    6.8517    0.0000 C.2     1  UNL1        0.0293
     51 C           3.4030   -5.0350    0.0000 C.2     1  UNL1        0.3367
     52 C           6.8116    7.3583    0.0000 C.3     1  UNL1       -0.0333
     53 C           5.0796    7.3450    0.0000 C.2     1  UNL1       -0.0774
     54 C           5.0719    8.3450    0.0000 C.3     1  UNL1       -0.0461
     55 H           7.6385   -1.2659    0.0000 H       1  UNL1        0.0315
     56 H           8.5314   -2.8232    0.0000 H       1  UNL1        0.0313
     57 H           9.2921   -0.9371    0.0000 H       1  UNL1        0.0271
     58 H           8.8824   -0.2520    0.0000 H       1  UNL1        0.0271
     59 H           6.1502    1.7614    0.0000 H       1  UNL1        0.0354
     60 H           8.9079   -2.4609    0.0000 H       1  UNL1        0.0268
     61 H           9.3017   -1.7665    0.0000 H       1  UNL1        0.0268
     62 H           8.8791    0.5911    0.0000 H       1  UNL1        0.0299
     63 H           9.2836    1.2794    0.0000 H       1  UNL1        0.0299
     64 H           5.4251   -0.2361    0.0000 H       1  UNL1        0.0310
     65 H           5.8263   -0.9248    0.0000 H       1  UNL1        0.0310
     66 H           5.7398   -1.8178    0.0000 H       1  UNL1        0.0271
     67 H           5.3300   -2.5029    0.0000 H       1  UNL1        0.0271
     68 H           9.2127    1.9062    0.0000 H       1  UNL1        0.0601
     69 H           8.8623   -0.7675    0.0000 H       1  UNL1        0.0235
     70 H           9.3624   -0.0473    0.0000 H       1  UNL1        0.0235
     71 H           8.6422    0.4529    0.0000 H       1  UNL1        0.0235
     72 H           7.4046   -4.3439    0.0000 H       1  UNL1        0.0603
     73 H           5.4941    0.9665    0.0000 H       1  UNL1        0.0572
     74 H           6.3400   -0.8406    0.0000 H       1  UNL1        0.0235
     75 H           5.4922   -1.0642    0.0000 H       1  UNL1        0.0235
     76 H           5.7158   -1.9120    0.0000 H       1  UNL1        0.0235
     77 H           5.3095    2.8146    0.0000 H       1  UNL1        0.0278
     78 H           5.7246    2.1327    0.0000 H       1  UNL1        0.0278
     79 H           5.3199   -3.3757    0.0000 H       1  UNL1        0.0290
     80 H           5.7137   -4.0701    0.0000 H       1  UNL1        0.0290
     81 H           8.6444   -0.1156    0.0000 H       1  UNL1        0.0238
     82 H           9.3607    0.3901    0.0000 H       1  UNL1        0.0238
     83 H           8.8550    1.1064    0.0000 H       1  UNL1        0.0238
     84 H           8.3868    3.7107    0.0000 H       1  UNL1        0.0638
     85 H           7.3698    4.6715    0.0000 H       1  UNL1        0.0766
     86 H           8.7115    2.6296    0.0000 H       1  UNL1        0.0564
     87 H           8.2284    3.7149    0.0000 H       1  UNL1        0.0564
     88 H           9.3855   -3.2646    0.0000 H       1  UNL1        0.0563
     89 H           8.6922   -2.8714    0.0000 H       1  UNL1        0.0563
     90 H           7.7767   -4.6651    0.0000 H       1  UNL1        0.0237
     91 H           8.6254   -4.8855    0.0000 H       1  UNL1        0.0237
     92 H           8.8458   -4.0368    0.0000 H       1  UNL1        0.0237
     93 H          10.0793    2.4072    0.0000 H       1  UNL1        0.2098
     94 H           5.9202    4.9816    0.0000 H       1  UNL1        0.0236
     95 H           5.0699    5.1954    0.0000 H       1  UNL1        0.0236
     96 H           4.8560    4.3451    0.0000 H       1  UNL1        0.0236
     97 H           4.8920    4.4096    0.0000 H       1  UNL1        0.0236
     98 H           4.2816    3.7801    0.0000 H       1  UNL1        0.0236
     99 H           4.9111    3.1698    0.0000 H       1  UNL1        0.0236
    100 H           7.7199    5.2342    0.0000 H       1  UNL1        0.2100
    101 H           9.8781    3.9174    0.0000 H       1  UNL1        0.2094
    102 H           6.0010   -4.9150    0.0000 H       1  UNL1        0.0938
    103 H           9.9312   -4.3385    0.0000 H       1  UNL1        0.2094
    104 H           6.0010   -7.1550    0.0000 H       1  UNL1        0.0671
    105 H           4.5981   -7.3450    0.0000 H       1  UNL1        0.0648
    106 H           4.2690   -4.9150    0.0000 H       1  UNL1        0.0741
    107 H           3.7320   -6.2250    0.0000 H       1  UNL1        0.0652
    108 H           7.4040   -6.7250    0.0000 H       1  UNL1        0.2101
    109 H           5.6720   -8.3450    0.0000 H       1  UNL1        0.2100
    110 H           7.1257    6.8238    0.0000 H       1  UNL1        0.0280
    111 H           7.3461    7.6725    0.0000 H       1  UNL1        0.0280
    112 H           6.4974    7.8929    0.0000 H       1  UNL1        0.0280
    113 H           4.5450    7.0308    0.0000 H       1  UNL1        0.0574
    114 H           3.4030   -7.6550    0.0000 H       1  UNL1        0.2100
    115 H           5.6919    8.3497    0.0000 H       1  UNL1        0.0272
    116 H           5.0671    8.9649    0.0000 H       1  UNL1        0.0272
    117 H           4.4519    8.3402    0.0000 H       1  UNL1        0.0272
    118 H           2.0000   -5.2250    0.0000 H       1  UNL1        0.2951
@<TRIPOS>BOND
     1    28     1    1
     2     1    93    1
     3    30     2    1
     4    44     2    1
     5    36     3    1
     6     3   100    1
     7    38     4    1
     8     4    46    1
     9     5    39    1
    10     5   101    1
    11     6    40    1
    12     6   103    1
    13     7    44    1
    14     7    48    1
    15    45     8    1
    16     8   108    1
    17     9    46    2
    18    47    10    1
    19    10   109    1
    20    49    11    1
    21    11   114    1
    22    12    51    1
    23    12   118    1
    24    13    51    2
    25    14    15    1
    26    14    17    1
    27    14    19    1
    28    14    29    1
    29    15    16    1
    30    15    26    1
    31    15    55    1
    32    16    18    1
    33    16    27    1
    34    16    32    1
    35    17    20    1
    36    17    25    1
    37    17    35    1
    38    18    23    1
    39    18    24    1
    40    18    56    1
    41    19    23    1
    42    19    57    1
    43    19    58    1
    44    20    21    1
    45    20    31    2
    46    21    22    1
    47    21    33    1
    48    21    59    1
    49    22    28    1
    50    22    36    1
    51    22    39    1
    52    23    60    1
    53    23    61    1
    54    24    30    1
    55    24    40    1
    56    24    41    1
    57    25    28    1
    58    25    62    1
    59    25    63    1
    60    26    31    1
    61    26    64    1
    62    26    65    1
    63    27    34    1
    64    27    66    1
    65    27    67    1
    66    28    68    1
    67    29    69    1
    68    29    70    1
    69    29    71    1
    70    30    34    1
    71    30    72    1
    72    31    73    1
    73    32    74    1
    74    32    75    1
    75    32    76    1
    76    33    37    1
    77    33    77    1
    78    33    78    1
    79    34    79    1
    80    34    80    1
    81    35    81    1
    82    35    82    1
    83    35    83    1
    84    36    38    1
    85    36    84    1
    86    37    38    1
    87    37    42    1
    88    37    43    1
    89    38    85    1
    90    39    86    1
    91    39    87    1
    92    40    88    1
    93    40    89    1
    94    41    90    1
    95    41    91    1
    96    41    92    1
    97    42    97    1
    98    42    98    1
    99    42    99    1
   100    43    94    1
   101    43    95    1
   102    43    96    1
   103    44    45    1
   104    44   102    1
   105    45    47    1
   106    45   104    1
   107    46    50    1
   108    47    49    1
   109    47   105    1
   110    48    49    1
   111    48    51    1
   112    48   106    1
   113    49   107    1
   114    50    52    1
   115    50    53    2
   116    52   110    1
   117    52   111    1
   118    52   112    1
   119    53    54    1
   120    53   113    1
   121    54   115    1
   122    54   116    1
   123    54   117    1
