@<TRIPOS>MOLECULE
IMPHY014273
 76 79 0 0 0
SMALL
GASTEIGER

@<TRIPOS>ATOM
      1 O           7.9288   -2.2889    0.0000 O.3     1  UNL1       -0.3837
      2 O           6.1847   -4.3582    0.0000 O.2     1  UNL1       -0.2924
      3 O           2.5357   -3.3413    0.0000 O.3     1  UNL1       -0.3918
      4 O          10.8321    0.4282    0.0000 O.3     1  UNL1       -0.3915
      5 O          12.0747    4.2303    0.0000 O.3     1  UNL1       -0.3891
      6 C           7.9288   -0.2889    0.0000 C.3     1  UNL1        0.0038
      7 C           7.9288   -1.2889    0.0000 C.3     1  UNL1        0.0933
      8 C           8.8750    0.0158    0.0000 C.3     1  UNL1       -0.0277
      9 C           6.1968   -1.2889    0.0000 C.3     1  UNL1       -0.0107
     10 C           5.2868   -1.7958    0.0000 C.3     1  UNL1       -0.0155
     11 C           7.0628    0.2111    0.0000 C.3     1  UNL1       -0.0439
     12 C           7.0628   -1.7889    0.0000 C.2     1  UNL1       -0.0310
     13 C           8.8750   -1.5937    0.0000 C.3     1  UNL1       -0.0193
     14 C           6.1968   -0.2889    0.0000 C.3     1  UNL1       -0.0453
     15 C           9.4586   -0.7889    0.0000 C.3     1  UNL1       -0.0464
     16 C           5.2787   -2.8374    0.0000 C.3     1  UNL1        0.0298
     17 C           9.1857    0.9663    0.0000 C.3     1  UNL1       -0.0144
     18 C           7.9288    0.7111    0.0000 C.3     1  UNL1       -0.0564
     19 C           4.3599   -1.2317    0.0000 C.3     1  UNL1       -0.0441
     20 C           7.0789   -2.8304    0.0000 C.2     1  UNL1       -0.0167
     21 C           4.3433   -3.3871    0.0000 C.3     1  UNL1       -0.0165
     22 C           5.2945   -0.7958    0.0000 C.3     1  UNL1       -0.0584
     23 C           6.1808   -3.3582    0.0000 C.2     1  UNL1        0.1598
     24 C           3.4120   -1.7596    0.0000 C.3     1  UNL1       -0.0263
     25 C           3.4037   -2.8446    0.0000 C.3     1  UNL1        0.0559
     26 C          10.1642    1.1725    0.0000 C.3     1  UNL1        0.0582
     27 C           8.5179    1.7106    0.0000 C.3     1  UNL1       -0.0598
     28 C          10.4749    2.1231    0.0000 C.3     1  UNL1       -0.0240
     29 C          11.4534    2.3293    0.0000 C.3     1  UNL1       -0.0222
     30 C          11.7640    3.2798    0.0000 C.3     1  UNL1        0.0606
     31 C          12.7146    2.9691    0.0000 C.3     1  UNL1       -0.0363
     32 C          10.8135    3.5905    0.0000 C.3     1  UNL1       -0.0363
     33 H           9.7148    0.1477    0.0000 H       1  UNL1        0.0310
     34 H           6.9329   -0.8639    0.0000 H       1  UNL1        0.0352
     35 H           7.4613    0.6860    0.0000 H       1  UNL1        0.0272
     36 H           6.6643    0.6860    0.0000 H       1  UNL1        0.0272
     37 H           8.6240   -2.1606    0.0000 H       1  UNL1        0.0296
     38 H           9.4124   -1.9029    0.0000 H       1  UNL1        0.0296
     39 H           5.9847    0.2937    0.0000 H       1  UNL1        0.0271
     40 H           5.5862   -0.3966    0.0000 H       1  UNL1        0.0271
     41 H           9.9195   -1.2037    0.0000 H       1  UNL1        0.0269
     42 H           9.9195   -0.3742    0.0000 H       1  UNL1        0.0269
     43 H           5.2820   -3.6874    0.0000 H       1  UNL1        0.0387
     44 H           9.3783    1.5556    0.0000 H       1  UNL1        0.0326
     45 H           8.5488    0.7111    0.0000 H       1  UNL1        0.0236
     46 H           7.9288    1.3311    0.0000 H       1  UNL1        0.0236
     47 H           7.3088    0.7111    0.0000 H       1  UNL1        0.0236
     48 H           4.7681   -0.7650    0.0000 H       1  UNL1        0.0272
     49 H           3.9700   -0.7497    0.0000 H       1  UNL1        0.0272
     50 H           7.6193   -3.1342    0.0000 H       1  UNL1        0.0653
     51 H           3.9460   -3.8631    0.0000 H       1  UNL1        0.0297
     52 H           4.7443   -3.8600    0.0000 H       1  UNL1        0.0297
     53 H           5.9145   -0.8006    0.0000 H       1  UNL1        0.0235
     54 H           5.2993   -0.1758    0.0000 H       1  UNL1        0.0235
     55 H           4.6745   -0.7910    0.0000 H       1  UNL1        0.0235
     56 H           8.4658   -2.5989    0.0000 H       1  UNL1        0.2106
     57 H           3.2075   -1.1744    0.0000 H       1  UNL1        0.0290
     58 H           2.8004   -1.8610    0.0000 H       1  UNL1        0.0290
     59 H           3.4025   -3.4646    0.0000 H       1  UNL1        0.0593
     60 H           9.9716    0.5832    0.0000 H       1  UNL1        0.0596
     61 H           8.9793    2.1247    0.0000 H       1  UNL1        0.0233
     62 H           8.1038    2.1721    0.0000 H       1  UNL1        0.0233
     63 H           8.0564    1.2966    0.0000 H       1  UNL1        0.0233
     64 H          10.4543    2.7427    0.0000 H       1  UNL1        0.0291
     65 H           9.8611    2.2104    0.0000 H       1  UNL1        0.0291
     66 H           2.0000   -3.0292    0.0000 H       1  UNL1        0.2098
     67 H          11.4387    0.5561    0.0000 H       1  UNL1        0.2098
     68 H          11.4739    1.7096    0.0000 H       1  UNL1        0.0293
     69 H          12.0672    2.2419    0.0000 H       1  UNL1        0.0293
     70 H          12.5219    2.3798    0.0000 H       1  UNL1        0.0257
     71 H          13.3039    2.7765    0.0000 H       1  UNL1        0.0257
     72 H          12.9072    3.5585    0.0000 H       1  UNL1        0.0257
     73 H          11.0061    4.1798    0.0000 H       1  UNL1        0.0257
     74 H          10.2242    3.7831    0.0000 H       1  UNL1        0.0257
     75 H          10.6209    3.0011    0.0000 H       1  UNL1        0.0257
     76 H          12.6814    4.3582    0.0000 H       1  UNL1        0.2101
@<TRIPOS>BOND
     1     7     1    1
     2     1    56    1
     3     2    23    2
     4    25     3    1
     5     3    66    1
     6    26     4    1
     7     4    67    1
     8     5    30    1
     9     5    76    1
    10     6     7    1
    11     6     8    1
    12     6    11    1
    13     6    18    1
    14     7    12    1
    15     7    13    1
    16     8    15    1
    17     8    17    1
    18     8    33    1
    19     9    10    1
    20     9    12    1
    21     9    14    1
    22     9    34    1
    23    10    16    1
    24    10    19    1
    25    10    22    1
    26    11    14    1
    27    11    35    1
    28    11    36    1
    29    12    20    2
    30    13    15    1
    31    13    37    1
    32    13    38    1
    33    14    39    1
    34    14    40    1
    35    15    41    1
    36    15    42    1
    37    16    21    1
    38    16    23    1
    39    16    43    1
    40    17    26    1
    41    17    27    1
    42    17    44    1
    43    18    45    1
    44    18    46    1
    45    18    47    1
    46    19    24    1
    47    19    48    1
    48    19    49    1
    49    20    23    1
    50    20    50    1
    51    21    25    1
    52    21    51    1
    53    21    52    1
    54    22    53    1
    55    22    54    1
    56    22    55    1
    57    24    25    1
    58    24    57    1
    59    24    58    1
    60    25    59    1
    61    26    28    1
    62    26    60    1
    63    27    61    1
    64    27    62    1
    65    27    63    1
    66    28    29    1
    67    28    64    1
    68    28    65    1
    69    29    30    1
    70    29    68    1
    71    29    69    1
    72    30    31    1
    73    30    32    1
    74    31    70    1
    75    31    71    1
    76    31    72    1
    77    32    73    1
    78    32    74    1
    79    32    75    1
