@<TRIPOS>MOLECULE
IMPHY015096
 28 29 0 0 0
SMALL
GASTEIGER

@<TRIPOS>ATOM
      1 O           6.3306    0.2500    0.0000 O.3     1  UNL1       -0.3571
      2 O           4.5981   -1.7500    0.0000 O.2     1  UNL1       -0.2942
      3 C           5.4641    0.7500    0.0000 C.3     1  UNL1        0.1007
      4 C           5.4641   -0.2500    0.0000 C.3     1  UNL1        0.1460
      5 C           4.5981    1.2500    0.0000 C.3     1  UNL1       -0.0205
      6 C           3.7320   -0.2500    0.0000 C.3     1  UNL1        0.0226
      7 C           3.7320    0.7500    0.0000 C.3     1  UNL1       -0.0405
      8 C           4.5981   -0.7500    0.0000 C.2     1  UNL1        0.1679
      9 C           5.4641    1.7500    0.0000 C.3     1  UNL1       -0.0329
     10 C           2.8660   -0.7500    0.0000 C.3     1  UNL1       -0.0371
     11 C           2.0000   -0.2500    0.0000 C.3     1  UNL1       -0.0620
     12 C           2.8660   -1.7500    0.0000 C.3     1  UNL1       -0.0620
     13 H           5.8890   -0.9862    0.0000 H       1  UNL1        0.0705
     14 H           4.9966    1.7250    0.0000 H       1  UNL1        0.0294
     15 H           4.1996    1.7250    0.0000 H       1  UNL1        0.0294
     16 H           3.7320   -0.8700    0.0000 H       1  UNL1        0.0381
     17 H           3.5200    1.3326    0.0000 H       1  UNL1        0.0273
     18 H           3.1215    0.6423    0.0000 H       1  UNL1        0.0273
     19 H           6.0841    1.7500    0.0000 H       1  UNL1        0.0258
     20 H           5.4641    2.3700    0.0000 H       1  UNL1        0.0258
     21 H           4.8441    1.7500    0.0000 H       1  UNL1        0.0258
     22 H           2.8660   -0.1300    0.0000 H       1  UNL1        0.0302
     23 H           2.3100    0.2869    0.0000 H       1  UNL1        0.0233
     24 H           1.4631    0.0600    0.0000 H       1  UNL1        0.0233
     25 H           1.6900   -0.7869    0.0000 H       1  UNL1        0.0233
     26 H           2.2460   -1.7500    0.0000 H       1  UNL1        0.0233
     27 H           2.8660   -2.3700    0.0000 H       1  UNL1        0.0233
     28 H           3.4860   -1.7500    0.0000 H       1  UNL1        0.0233
@<TRIPOS>BOND
     1     1     3    1
     2     1     4    1
     3     2     8    2
     4     3     4    1
     5     3     5    1
     6     3     9    1
     7     4     8    1
     8     4    13    1
     9     5     7    1
    10     5    14    1
    11     5    15    1
    12     6     7    1
    13     6     8    1
    14     6    10    1
    15     6    16    1
    16     7    17    1
    17     7    18    1
    18     9    19    1
    19     9    20    1
    20     9    21    1
    21    10    11    1
    22    10    12    1
    23    10    22    1
    24    11    23    1
    25    11    24    1
    26    11    25    1
    27    12    26    1
    28    12    27    1
    29    12    28    1
