@<TRIPOS>MOLECULE
IMPHY000264
 100 100 0 0 0
SMALL
GASTEIGER

@<TRIPOS>ATOM
      1 O          10.6736   -3.2619    0.0000 O.3     1  UNL1       -0.4610
      2 O           7.0826   -1.8619    0.0000 O.3     1  UNL1       -0.4643
      3 O          10.4518    1.5860    0.0000 O.3     1  UNL1       -0.4643
      4 O           8.7198    1.5860    0.0000 O.3     1  UNL1       -0.3946
      5 O          12.0749   -2.2438    0.0000 O.2     1  UNL1       -0.2508
      6 O           5.9236   -0.5747    0.0000 O.2     1  UNL1       -0.2508
      7 O          12.1839    1.5860    0.0000 O.2     1  UNL1       -0.2508
      8 O          15.0584   -1.9302    0.0000 O.2     1  UNL1       -0.3010
      9 O          15.4205   -5.3753    0.0000 O.2     1  UNL1       -0.2960
     10 O           3.0705    0.3523    0.0000 O.2     1  UNL1       -0.3010
     11 O           2.0000   -2.9422    0.0000 O.2     1  UNL1       -0.2960
     12 O          14.7820    3.0860    0.0000 O.2     1  UNL1       -0.3010
     13 O          13.0499    6.0860    0.0000 O.2     1  UNL1       -0.2960
     14 C           9.5858   -0.9140    0.0000 C.3     1  UNL1       -0.0234
     15 C           8.7768   -1.5018    0.0000 C.3     1  UNL1        0.0026
     16 C           9.0858   -2.4529    0.0000 C.3     1  UNL1       -0.0005
     17 C          10.3948   -1.5018    0.0000 C.3     1  UNL1       -0.0118
     18 C          10.0858   -2.4529    0.0000 C.3     1  UNL1        0.1063
     19 C           9.5858    0.0860    0.0000 C.3     1  UNL1        0.0197
     20 C           7.8258   -1.1928    0.0000 C.3     1  UNL1        0.0959
     21 C           8.4980   -3.2619    0.0000 C.3     1  UNL1       -0.0587
     22 C          10.4518    0.5860    0.0000 C.3     1  UNL1        0.0976
     23 C           8.7198    0.5860    0.0000 C.3     1  UNL1        0.0504
     24 C          11.6681   -3.1573    0.0000 C.2     1  UNL1        0.3079
     25 C          12.2559   -3.9664    0.0000 C.3     1  UNL1        0.0522
     26 C           6.1316   -1.5529    0.0000 C.2     1  UNL1        0.3077
     27 C          11.3179    2.0860    0.0000 C.2     1  UNL1        0.3077
     28 C          13.2504   -3.8618    0.0000 C.3     1  UNL1        0.0033
     29 C           5.3884   -2.2220    0.0000 C.3     1  UNL1        0.0522
     30 C          11.3179    3.0860    0.0000 C.3     1  UNL1        0.0522
     31 C           4.4374   -1.9130    0.0000 C.3     1  UNL1        0.0033
     32 C          13.6572   -2.9483    0.0000 C.3     1  UNL1        0.0102
     33 C          13.8382   -4.6708    0.0000 C.2     1  UNL1       -0.0084
     34 C          12.1839    3.5860    0.0000 C.3     1  UNL1        0.0033
     35 C           4.2294   -0.9349    0.0000 C.3     1  UNL1        0.0102
     36 C           3.6942   -2.5821    0.0000 C.2     1  UNL1       -0.0084
     37 C          13.0499    3.0860    0.0000 C.3     1  UNL1        0.0102
     38 C          14.6517   -2.8438    0.0000 C.2     1  UNL1        0.1209
     39 C          13.4315   -5.5844    0.0000 C.2     1  UNL1       -0.0806
     40 C          12.1839    4.5860    0.0000 C.2     1  UNL1       -0.0084
     41 C          14.8327   -4.5663    0.0000 C.2     1  UNL1        0.1462
     42 C           3.2784   -0.6258    0.0000 C.2     1  UNL1        0.1209
     43 C           3.9021   -3.5603    0.0000 C.2     1  UNL1       -0.0806
     44 C           2.7431   -2.2731    0.0000 C.2     1  UNL1        0.1462
     45 C          12.4370   -5.6889    0.0000 C.3     1  UNL1       -0.0462
     46 C          13.9159    3.5860    0.0000 C.2     1  UNL1        0.1209
     47 C          11.3179    5.0860    0.0000 C.2     1  UNL1       -0.0806
     48 C          13.0499    5.0860    0.0000 C.2     1  UNL1        0.1462
     49 C           4.8532   -3.8693    0.0000 C.3     1  UNL1       -0.0462
     50 C          10.4518    4.5860    0.0000 C.3     1  UNL1       -0.0462
     51 H          10.3432   -0.5281    0.0000 H       1  UNL1        0.0310
     52 H           8.3384   -1.9402    0.0000 H       1  UNL1        0.0340
     53 H           8.4735   -2.3559    0.0000 H       1  UNL1        0.0338
     54 H          10.9612   -1.7540    0.0000 H       1  UNL1        0.0304
     55 H          10.7048   -0.9649    0.0000 H       1  UNL1        0.0304
     56 H           9.8044   -3.0053    0.0000 H       1  UNL1        0.0736
     57 H           9.0489   -0.2240    0.0000 H       1  UNL1        0.0359
     58 H           8.1168   -0.6454    0.0000 H       1  UNL1        0.0700
     59 H           7.3372   -0.8111    0.0000 H       1  UNL1        0.0700
     60 H           7.9964   -2.8974    0.0000 H       1  UNL1        0.0234
     61 H           8.1336   -3.7635    0.0000 H       1  UNL1        0.0234
     62 H           8.9996   -3.6263    0.0000 H       1  UNL1        0.0234
     63 H          10.6639    0.0034    0.0000 H       1  UNL1        0.0701
     64 H          11.0624    0.6936    0.0000 H       1  UNL1        0.0701
     65 H           8.1092    0.6936    0.0000 H       1  UNL1        0.0561
     66 H           8.5077    0.0034    0.0000 H       1  UNL1        0.0561
     67 H           8.1829    1.8960    0.0000 H       1  UNL1        0.2094
     68 H          11.6987   -4.2382    0.0000 H       1  UNL1        0.0384
     69 H          12.4268   -4.5623    0.0000 H       1  UNL1        0.0384
     70 H          14.0845   -4.3634    0.0000 H       1  UNL1        0.0359
     71 H           5.0973   -2.7694    0.0000 H       1  UNL1        0.0384
     72 H           5.8770   -2.6037    0.0000 H       1  UNL1        0.0384
     73 H          11.1058    3.6686    0.0000 H       1  UNL1        0.0384
     74 H          10.7073    2.9783    0.0000 H       1  UNL1        0.0384
     75 H           5.3358   -1.4982    0.0000 H       1  UNL1        0.0359
     76 H          13.7004   -2.3298    0.0000 H       1  UNL1        0.0345
     77 H          13.0556   -2.7983    0.0000 H       1  UNL1        0.0345
     78 H          12.7460    2.9660    0.0000 H       1  UNL1        0.0359
     79 H           4.8491   -0.9132    0.0000 H       1  UNL1        0.0345
     80 H           4.3157   -0.3209    0.0000 H       1  UNL1        0.0345
     81 H          12.6514    2.6110    0.0000 H       1  UNL1        0.0345
     82 H          13.4485    2.6110    0.0000 H       1  UNL1        0.0345
     83 H          15.0161   -3.3454    0.0000 H       1  UNL1        0.1026
     84 H          13.7959   -6.0860    0.0000 H       1  UNL1        0.0573
     85 H          15.0849   -3.9999    0.0000 H       1  UNL1        0.1078
     86 H           2.8176   -1.0407    0.0000 H       1  UNL1        0.1026
     87 H           3.4414   -3.9752    0.0000 H       1  UNL1        0.0573
     88 H           2.6142   -1.6667    0.0000 H       1  UNL1        0.1078
     89 H          12.3722   -5.0723    0.0000 H       1  UNL1        0.0272
     90 H          11.8204   -5.7537    0.0000 H       1  UNL1        0.0272
     91 H          12.5018   -6.3055    0.0000 H       1  UNL1        0.0272
     92 H          13.9159    4.2060    0.0000 H       1  UNL1        0.1026
     93 H          11.3179    5.7060    0.0000 H       1  UNL1        0.0573
     94 H          13.5869    4.7760    0.0000 H       1  UNL1        0.1078
     95 H           4.6616   -4.4590    0.0000 H       1  UNL1        0.0272
     96 H           5.4428   -4.0609    0.0000 H       1  UNL1        0.0272
     97 H           5.0448   -3.2796    0.0000 H       1  UNL1        0.0272
     98 H          10.1418    5.1229    0.0000 H       1  UNL1        0.0272
     99 H           9.9149    4.2760    0.0000 H       1  UNL1        0.0272
    100 H          10.7618    4.0490    0.0000 H       1  UNL1        0.0272
@<TRIPOS>BOND
     1    18     1    1
     2     1    24    1
     3     2    20    1
     4     2    26    1
     5     3    22    1
     6     3    27    1
     7     4    23    1
     8     4    67    1
     9     5    24    2
    10     6    26    2
    11     7    27    2
    12     8    38    2
    13     9    41    2
    14    10    42    2
    15    11    44    2
    16    12    46    2
    17    13    48    2
    18    14    15    1
    19    14    17    1
    20    14    19    1
    21    14    51    1
    22    15    16    1
    23    15    20    1
    24    15    52    1
    25    16    18    1
    26    16    21    1
    27    16    53    1
    28    17    18    1
    29    17    54    1
    30    17    55    1
    31    18    56    1
    32    19    22    1
    33    19    23    1
    34    19    57    1
    35    20    58    1
    36    20    59    1
    37    21    60    1
    38    21    61    1
    39    21    62    1
    40    22    63    1
    41    22    64    1
    42    23    65    1
    43    23    66    1
    44    24    25    1
    45    28    25    1
    46    25    68    1
    47    25    69    1
    48    26    29    1
    49    27    30    1
    50    28    32    1
    51    28    33    1
    52    28    70    1
    53    31    29    1
    54    29    71    1
    55    29    72    1
    56    34    30    1
    57    30    73    1
    58    30    74    1
    59    31    35    1
    60    31    36    1
    61    31    75    1
    62    32    38    1
    63    32    76    1
    64    32    77    1
    65    33    39    2
    66    33    41    1
    67    34    37    1
    68    34    40    1
    69    34    78    1
    70    35    42    1
    71    35    79    1
    72    35    80    1
    73    36    43    2
    74    36    44    1
    75    37    46    1
    76    37    81    1
    77    37    82    1
    78    38    83    1
    79    39    45    1
    80    39    84    1
    81    40    47    2
    82    40    48    1
    83    41    85    1
    84    42    86    1
    85    43    49    1
    86    43    87    1
    87    44    88    1
    88    45    89    1
    89    45    90    1
    90    45    91    1
    91    46    92    1
    92    47    50    1
    93    47    93    1
    94    48    94    1
    95    49    95    1
    96    49    96    1
    97    49    97    1
    98    50    98    1
    99    50    99    1
   100    50   100    1
