@<TRIPOS>MOLECULE
IMPHY005525
 81 85 0 0 0
SMALL
GASTEIGER

@<TRIPOS>ATOM
      1 O           4.1686   -4.9243    0.0000 O.3     1  UNL1       -0.3912
      2 O           6.4463    5.0552    0.0000 O.3     1  UNL1       -0.3912
      3 O           2.7778    4.1115    0.0000 O.2     1  UNL1       -0.2923
      4 C           3.8958   -1.7807    0.0000 C.3     1  UNL1       -0.0253
      5 C           3.8019   -0.7433    0.0000 C.3     1  UNL1       -0.0296
      6 C           2.9010   -0.3094    0.0000 C.3     1  UNL1       -0.0250
      7 C           3.0397   -2.3741    0.0000 C.3     1  UNL1       -0.0278
      8 C           3.1124   -3.4566    0.0000 C.3     1  UNL1       -0.0056
      9 C           2.0314   -0.8828    0.0000 C.3     1  UNL1       -0.0468
     10 C           2.1012   -1.9221    0.0000 C.3     1  UNL1       -0.0486
     11 C           4.7029   -0.3094    0.0000 C.3     1  UNL1       -0.0486
     12 C           4.8840   -2.2287    0.0000 C.3     1  UNL1       -0.0447
     13 C           4.3019    1.4474    0.0000 C.3     1  UNL1       -0.0134
     14 C           4.8366    2.3413    0.0000 C.3     1  UNL1       -0.0151
     15 C           2.6785    0.6655    0.0000 C.3     1  UNL1       -0.0254
     16 C           4.9254    0.6655    0.0000 C.3     1  UNL1       -0.0457
     17 C           4.0900   -3.9274    0.0000 C.3     1  UNL1        0.0606
     18 C           3.3019    1.4474    0.0000 C.2     1  UNL1       -0.0621
     19 C           4.3228    3.2474    0.0000 C.3     1  UNL1        0.0349
     20 C           4.9817   -3.3093    0.0000 C.3     1  UNL1       -0.0258
     21 C           4.7177   -1.2110    0.0000 C.3     1  UNL1       -0.0590
     22 C           2.0000    0.1245    0.0000 C.3     1  UNL1       -0.0590
     23 C           4.8580    4.1912    0.0000 C.3     1  UNL1        0.0014
     24 C           5.9213    2.3162    0.0000 C.3     1  UNL1       -0.0441
     25 C           2.6751   -4.3559    0.0000 C.3     1  UNL1       -0.0572
     26 C           2.1150   -3.5275    0.0000 C.3     1  UNL1       -0.0572
     27 C           5.9430    4.1912    0.0000 C.3     1  UNL1        0.0610
     28 C           5.3299    1.4714    0.0000 C.3     1  UNL1       -0.0583
     29 C           6.4782    3.2474    0.0000 C.3     1  UNL1       -0.0258
     30 C           2.7673    2.3413    0.0000 C.2     1  UNL1       -0.0194
     31 C           3.2811    3.2474    0.0000 C.2     1  UNL1        0.1602
     32 C           4.8541    5.1912    0.0000 C.3     1  UNL1       -0.0568
     33 C           3.9900    4.6878    0.0000 C.3     1  UNL1       -0.0568
     34 H           4.5413   -1.1626    0.0000 H       1  UNL1        0.0311
     35 H           2.3356   -2.8502    0.0000 H       1  UNL1        0.0312
     36 H           1.7837   -0.3145    0.0000 H       1  UNL1        0.0271
     37 H           1.4290   -1.0296    0.0000 H       1  UNL1        0.0271
     38 H           1.4846   -1.8572    0.0000 H       1  UNL1        0.0268
     39 H           1.9318   -2.5185    0.0000 H       1  UNL1        0.0268
     40 H           4.8409   -0.9139    0.0000 H       1  UNL1        0.0268
     41 H           5.3229   -0.3094    0.0000 H       1  UNL1        0.0268
     42 H           5.5019   -2.2793    0.0000 H       1  UNL1        0.0271
     43 H           5.0396   -1.6286    0.0000 H       1  UNL1        0.0271
     44 H           5.1500    1.5043    0.0000 H       1  UNL1        0.0351
     45 H           2.2919    1.1503    0.0000 H       1  UNL1        0.0316
     46 H           2.1198    0.3965    0.0000 H       1  UNL1        0.0316
     47 H           5.4840    0.3965    0.0000 H       1  UNL1        0.0271
     48 H           5.3120    1.1503    0.0000 H       1  UNL1        0.0271
     49 H           4.6501   -4.1932    0.0000 H       1  UNL1        0.0599
     50 H           3.8949    3.9818    0.0000 H       1  UNL1        0.0392
     51 H           5.2425   -3.8718    0.0000 H       1  UNL1        0.0290
     52 H           5.5805   -3.1486    0.0000 H       1  UNL1        0.0290
     53 H           5.0708   -1.7206    0.0000 H       1  UNL1        0.0235
     54 H           5.2272   -0.8578    0.0000 H       1  UNL1        0.0235
     55 H           4.3645   -0.7014    0.0000 H       1  UNL1        0.0235
     56 H           2.2690    0.6831    0.0000 H       1  UNL1        0.0235
     57 H           1.4414    0.3935    0.0000 H       1  UNL1        0.0235
     58 H           1.7310   -0.4341    0.0000 H       1  UNL1        0.0235
     59 H           5.8011    1.7080    0.0000 H       1  UNL1        0.0272
     60 H           6.5000    2.0937    0.0000 H       1  UNL1        0.0272
     61 H           2.0710   -2.9091    0.0000 H       1  UNL1        0.0236
     62 H           1.4965   -3.5715    0.0000 H       1  UNL1        0.0236
     63 H           2.1589   -4.1460    0.0000 H       1  UNL1        0.0236
     64 H           2.1175   -4.0848    0.0000 H       1  UNL1        0.0236
     65 H           2.4039   -4.9135    0.0000 H       1  UNL1        0.0236
     66 H           3.2326   -4.6271    0.0000 H       1  UNL1        0.0236
     67 H           5.6340    4.7287    0.0000 H       1  UNL1        0.0599
     68 H           4.7906    1.1656    0.0000 H       1  UNL1        0.0235
     69 H           5.6358    0.9321    0.0000 H       1  UNL1        0.0235
     70 H           5.8692    1.7773    0.0000 H       1  UNL1        0.0235
     71 H           6.9480    2.8428    0.0000 H       1  UNL1        0.0290
     72 H           6.9572    3.6410    0.0000 H       1  UNL1        0.0290
     73 H           2.1473    2.3341    0.0000 H       1  UNL1        0.0652
     74 H           4.2980    5.2259    0.0000 H       1  UNL1        0.0236
     75 H           3.4519    4.9957    0.0000 H       1  UNL1        0.0236
     76 H           3.6821    4.1497    0.0000 H       1  UNL1        0.0236
     77 H           5.4741    5.1935    0.0000 H       1  UNL1        0.0236
     78 H           4.8518    5.8111    0.0000 H       1  UNL1        0.0236
     79 H           4.2341    5.1888    0.0000 H       1  UNL1        0.0236
     80 H           4.7282   -5.1912    0.0000 H       1  UNL1        0.2098
     81 H           7.0663    5.0529    0.0000 H       1  UNL1        0.2098
@<TRIPOS>BOND
     1    17     1    1
     2     1    80    1
     3    27     2    1
     4     2    81    1
     5     3    31    2
     6     4     5    1
     7     4     7    1
     8     4    12    1
     9     4    21    1
    10     5     6    1
    11     5    11    1
    12     5    34    1
    13     6     9    1
    14     6    15    1
    15     6    22    1
    16     7     8    1
    17     7    10    1
    18     7    35    1
    19     8    17    1
    20     8    25    1
    21     8    26    1
    22     9    10    1
    23     9    36    1
    24     9    37    1
    25    10    38    1
    26    10    39    1
    27    11    16    1
    28    11    40    1
    29    11    41    1
    30    12    20    1
    31    12    42    1
    32    12    43    1
    33    13    14    1
    34    13    16    1
    35    13    18    1
    36    13    44    1
    37    14    19    1
    38    14    24    1
    39    14    28    1
    40    15    18    1
    41    15    45    1
    42    15    46    1
    43    16    47    1
    44    16    48    1
    45    17    20    1
    46    17    49    1
    47    18    30    2
    48    19    23    1
    49    19    31    1
    50    19    50    1
    51    20    51    1
    52    20    52    1
    53    21    53    1
    54    21    54    1
    55    21    55    1
    56    22    56    1
    57    22    57    1
    58    22    58    1
    59    23    27    1
    60    23    32    1
    61    23    33    1
    62    24    29    1
    63    24    59    1
    64    24    60    1
    65    25    64    1
    66    25    65    1
    67    25    66    1
    68    26    61    1
    69    26    62    1
    70    26    63    1
    71    27    29    1
    72    27    67    1
    73    28    68    1
    74    28    69    1
    75    28    70    1
    76    29    71    1
    77    29    72    1
    78    30    31    1
    79    30    73    1
    80    32    77    1
    81    32    78    1
    82    32    79    1
    83    33    74    1
    84    33    75    1
    85    33    76    1
