@<TRIPOS>MOLECULE
IMPHY017711
 43 43 0 0 0
SMALL
GASTEIGER

@<TRIPOS>ATOM
      1 O           3.7320    2.7500    0.0000 O.3     1  UNL1       -0.4257
      2 O           5.4641    2.7500    0.0000 O.2     1  UNL1       -0.2507
      3 C           5.4641   -0.2500    0.0000 C.3     1  UNL1       -0.0183
      4 C           5.4641   -1.2500    0.0000 C.3     1  UNL1       -0.0430
      5 C           4.5981    0.2500    0.0000 C.ar    1  UNL1       -0.0410
      6 C           6.3301   -1.7500    0.0000 C.3     1  UNL1       -0.0340
      7 C           6.3301    0.2500    0.0000 C.3     1  UNL1       -0.0584
      8 C           4.5981    1.2500    0.0000 C.ar    1  UNL1       -0.0155
      9 C           3.7320   -0.2500    0.0000 C.ar    1  UNL1       -0.0578
     10 C           6.3301   -2.7500    0.0000 C.2     1  UNL1       -0.0853
     11 C           3.7320    1.7500    0.0000 C.ar    1  UNL1        0.1348
     12 C           2.8660    1.2500    0.0000 C.ar    1  UNL1       -0.0081
     13 C           2.8660    0.2500    0.0000 C.ar    1  UNL1       -0.0551
     14 C           7.1962   -3.2500    0.0000 C.2     1  UNL1       -0.0796
     15 C           2.0000    1.7500    0.0000 C.3     1  UNL1       -0.0362
     16 C           7.1962   -4.2500    0.0000 C.3     1  UNL1       -0.0440
     17 C           8.0622   -2.7500    0.0000 C.3     1  UNL1       -0.0440
     18 C           4.5981    3.2500    0.0000 C.2     1  UNL1        0.3092
     19 C           4.5981    4.2500    0.0000 C.3     1  UNL1        0.0336
     20 H           5.4641    0.3700    0.0000 H       1  UNL1        0.0346
     21 H           4.8535   -1.1423    0.0000 H       1  UNL1        0.0274
     22 H           5.2520   -1.8326    0.0000 H       1  UNL1        0.0274
     23 H           6.9407   -1.8577    0.0000 H       1  UNL1        0.0308
     24 H           6.5422   -1.1674    0.0000 H       1  UNL1        0.0308
     25 H           6.6401   -0.2869    0.0000 H       1  UNL1        0.0236
     26 H           6.8671    0.5600    0.0000 H       1  UNL1        0.0236
     27 H           6.0201    0.7869    0.0000 H       1  UNL1        0.0236
     28 H           5.1350    1.5600    0.0000 H       1  UNL1        0.0657
     29 H           3.7320   -0.8700    0.0000 H       1  UNL1        0.0620
     30 H           5.7932   -3.0600    0.0000 H       1  UNL1        0.0571
     31 H           2.3291   -0.0600    0.0000 H       1  UNL1        0.0621
     32 H           2.3100    2.2869    0.0000 H       1  UNL1        0.0279
     33 H           1.4631    2.0600    0.0000 H       1  UNL1        0.0279
     34 H           1.6900    1.2131    0.0000 H       1  UNL1        0.0279
     35 H           6.5762   -4.2500    0.0000 H       1  UNL1        0.0274
     36 H           7.1962   -4.8700    0.0000 H       1  UNL1        0.0274
     37 H           7.8162   -4.2500    0.0000 H       1  UNL1        0.0274
     38 H           8.3722   -3.2869    0.0000 H       1  UNL1        0.0274
     39 H           8.5991   -2.4400    0.0000 H       1  UNL1        0.0274
     40 H           7.7522   -2.2131    0.0000 H       1  UNL1        0.0274
     41 H           5.2181    4.2500    0.0000 H       1  UNL1        0.0342
     42 H           4.5981    4.8700    0.0000 H       1  UNL1        0.0342
     43 H           3.9781    4.2500    0.0000 H       1  UNL1        0.0342
@<TRIPOS>BOND
     1     1    11    1
     2     1    18    1
     3     2    18    2
     4     3     4    1
     5     3     5    1
     6     3     7    1
     7     3    20    1
     8     4     6    1
     9     4    21    1
    10     4    22    1
    11     5     8   ar
    12     5     9   ar
    13     6    10    1
    14     6    23    1
    15     6    24    1
    16     7    25    1
    17     7    26    1
    18     7    27    1
    19     8    11   ar
    20     8    28    1
    21     9    13   ar
    22     9    29    1
    23    10    14    2
    24    10    30    1
    25    11    12   ar
    26    12    13   ar
    27    12    15    1
    28    13    31    1
    29    14    16    1
    30    14    17    1
    31    15    32    1
    32    15    33    1
    33    15    34    1
    34    16    35    1
    35    16    36    1
    36    16    37    1
    37    17    38    1
    38    17    39    1
    39    17    40    1
    40    18    19    1
    41    19    41    1
    42    19    42    1
    43    19    43    1
