@<TRIPOS>MOLECULE
IMPHY002153
 84 87 0 0 0
SMALL
GASTEIGER

@<TRIPOS>ATOM
      1 O           7.9174   -2.6228    0.0000 O.3     1  UNL1       -0.3837
      2 O          10.1248    0.3218    0.0000 O.3     1  UNL1       -0.3860
      3 O           2.5405   -1.5835    0.0000 O.3     1  UNL1       -0.3892
      4 O           8.8172    2.3273    0.0000 O.3     1  UNL1       -0.3889
      5 O           6.1733   -4.6920    0.0000 O.2     1  UNL1       -0.2924
      6 O           2.5244   -3.6751    0.0000 O.3     1  UNL1       -0.3892
      7 O          13.0418    4.1027    0.0000 O.3     1  UNL1       -0.3947
      8 C           7.9174   -0.6228    0.0000 C.3     1  UNL1        0.0061
      9 C           7.9174   -1.6228    0.0000 C.3     1  UNL1        0.0934
     10 C           8.8637   -0.3180    0.0000 C.3     1  UNL1       -0.0015
     11 C           6.1854   -1.6228    0.0000 C.3     1  UNL1       -0.0107
     12 C           5.2754   -2.1296    0.0000 C.3     1  UNL1       -0.0132
     13 C           7.0514   -0.1228    0.0000 C.3     1  UNL1       -0.0438
     14 C           7.0514   -2.1228    0.0000 C.2     1  UNL1       -0.0310
     15 C           8.8637   -1.9275    0.0000 C.3     1  UNL1       -0.0192
     16 C           9.4473   -1.1228    0.0000 C.3     1  UNL1       -0.0440
     17 C           6.1854   -0.6228    0.0000 C.3     1  UNL1       -0.0453
     18 C           5.2674   -3.1712    0.0000 C.3     1  UNL1        0.0299
     19 C           9.1743    0.6325    0.0000 C.3     1  UNL1        0.0924
     20 C           7.9174    0.3772    0.0000 C.3     1  UNL1       -0.0563
     21 C           4.3486   -1.5655    0.0000 C.3     1  UNL1       -0.0178
     22 C           7.0675   -3.1643    0.0000 C.2     1  UNL1       -0.0167
     23 C           4.3319   -3.7209    0.0000 C.3     1  UNL1       -0.0141
     24 C           5.2831   -1.1296    0.0000 C.3     1  UNL1       -0.0583
     25 C           6.1694   -3.6920    0.0000 C.2     1  UNL1        0.1598
     26 C           3.4007   -2.0935    0.0000 C.3     1  UNL1        0.0816
     27 C           9.4850    1.5830    0.0000 C.3     1  UNL1        0.0841
     28 C           3.3923   -3.1784    0.0000 C.3     1  UNL1        0.0817
     29 C           8.2238    0.9431    0.0000 C.3     1  UNL1       -0.0334
     30 C          10.4635    1.7892    0.0000 C.3     1  UNL1       -0.0210
     31 C          10.7742    2.7397    0.0000 C.3     1  UNL1       -0.0342
     32 C          11.7527    2.9460    0.0000 C.3     1  UNL1       -0.0177
     33 C          10.1063    3.4840    0.0000 C.3     1  UNL1       -0.0527
     34 C          12.0633    3.8965    0.0000 C.3     1  UNL1        0.0470
     35 C          12.4205    2.2017    0.0000 C.3     1  UNL1       -0.0601
     36 C          10.4170    4.4346    0.0000 C.3     1  UNL1       -0.0650
     37 H           9.7034   -0.1862    0.0000 H       1  UNL1        0.0336
     38 H           6.9215   -1.1978    0.0000 H       1  UNL1        0.0352
     39 H           7.4500    0.3522    0.0000 H       1  UNL1        0.0272
     40 H           6.6529    0.3522    0.0000 H       1  UNL1        0.0272
     41 H           8.6126   -2.4944    0.0000 H       1  UNL1        0.0296
     42 H           9.4010   -2.2367    0.0000 H       1  UNL1        0.0296
     43 H           9.9081   -1.5375    0.0000 H       1  UNL1        0.0270
     44 H           9.9081   -0.7080    0.0000 H       1  UNL1        0.0270
     45 H           5.9733   -0.0402    0.0000 H       1  UNL1        0.0271
     46 H           5.5748   -0.7304    0.0000 H       1  UNL1        0.0271
     47 H           5.2706   -4.0212    0.0000 H       1  UNL1        0.0387
     48 H           8.5374    0.3772    0.0000 H       1  UNL1        0.0236
     49 H           7.9174    0.9972    0.0000 H       1  UNL1        0.0236
     50 H           7.2974    0.3772    0.0000 H       1  UNL1        0.0236
     51 H           4.7568   -1.0989    0.0000 H       1  UNL1        0.0297
     52 H           3.9586   -1.0835    0.0000 H       1  UNL1        0.0297
     53 H           7.6080   -3.4680    0.0000 H       1  UNL1        0.0653
     54 H           3.9346   -4.1969    0.0000 H       1  UNL1        0.0298
     55 H           4.7329   -4.1938    0.0000 H       1  UNL1        0.0298
     56 H           5.9031   -1.1344    0.0000 H       1  UNL1        0.0235
     57 H           5.2879   -0.5097    0.0000 H       1  UNL1        0.0235
     58 H           4.6631   -1.1249    0.0000 H       1  UNL1        0.0235
     59 H           3.4090   -1.4735    0.0000 H       1  UNL1        0.0619
     60 H           8.4544   -2.9328    0.0000 H       1  UNL1        0.2106
     61 H           8.8783    1.4552    0.0000 H       1  UNL1        0.0622
     62 H           2.8572   -2.8653    0.0000 H       1  UNL1        0.0619
     63 H           8.4164    1.5325    0.0000 H       1  UNL1        0.0258
     64 H           7.6345    1.1358    0.0000 H       1  UNL1        0.0258
     65 H           8.0312    0.3538    0.0000 H       1  UNL1        0.0258
     66 H          10.5863    0.7359    0.0000 H       1  UNL1        0.2103
     67 H          10.4841    1.1696    0.0000 H       1  UNL1        0.0294
     68 H          11.0773    1.7019    0.0000 H       1  UNL1        0.0294
     69 H          11.6417    2.2783    0.0000 H       1  UNL1        0.0305
     70 H           2.0000   -1.8873    0.0000 H       1  UNL1        0.2099
     71 H           9.0098    2.9166    0.0000 H       1  UNL1        0.2099
     72 H           2.5220   -4.2951    0.0000 H       1  UNL1        0.2099
     73 H          11.5601    2.3566    0.0000 H       1  UNL1        0.0323
     74 H           9.5594    3.7761    0.0000 H       1  UNL1        0.0265
     75 H           9.7238    2.9961    0.0000 H       1  UNL1        0.0265
     76 H          12.0428    4.5161    0.0000 H       1  UNL1        0.0560
     77 H          11.4495    3.9838    0.0000 H       1  UNL1        0.0560
     78 H          11.9590    1.7876    0.0000 H       1  UNL1        0.0233
     79 H          12.8346    1.7402    0.0000 H       1  UNL1        0.0233
     80 H          12.8820    2.6157    0.0000 H       1  UNL1        0.0233
     81 H          11.0063    4.2420    0.0000 H       1  UNL1        0.0230
     82 H          10.6096    5.0239    0.0000 H       1  UNL1        0.0230
     83 H           9.8276    4.6272    0.0000 H       1  UNL1        0.0230
     84 H          13.2344    4.6920    0.0000 H       1  UNL1        0.2094
@<TRIPOS>BOND
     1     9     1    1
     2     1    60    1
     3    19     2    1
     4     2    66    1
     5    26     3    1
     6     3    70    1
     7    27     4    1
     8     4    71    1
     9     5    25    2
    10    28     6    1
    11     6    72    1
    12     7    34    1
    13     7    84    1
    14     8     9    1
    15     8    10    1
    16     8    13    1
    17     8    20    1
    18     9    14    1
    19     9    15    1
    20    10    16    1
    21    10    19    1
    22    10    37    1
    23    11    12    1
    24    11    14    1
    25    11    17    1
    26    11    38    1
    27    12    18    1
    28    12    21    1
    29    12    24    1
    30    13    17    1
    31    13    39    1
    32    13    40    1
    33    14    22    2
    34    15    16    1
    35    15    41    1
    36    15    42    1
    37    16    43    1
    38    16    44    1
    39    17    45    1
    40    17    46    1
    41    18    23    1
    42    18    25    1
    43    18    47    1
    44    19    27    1
    45    19    29    1
    46    20    48    1
    47    20    49    1
    48    20    50    1
    49    21    26    1
    50    21    51    1
    51    21    52    1
    52    22    25    1
    53    22    53    1
    54    23    28    1
    55    23    54    1
    56    23    55    1
    57    24    56    1
    58    24    57    1
    59    24    58    1
    60    26    28    1
    61    26    59    1
    62    27    30    1
    63    27    61    1
    64    28    62    1
    65    29    63    1
    66    29    64    1
    67    29    65    1
    68    31    30    1
    69    30    67    1
    70    30    68    1
    71    31    32    1
    72    31    33    1
    73    31    69    1
    74    32    34    1
    75    32    35    1
    76    32    73    1
    77    33    36    1
    78    33    74    1
    79    33    75    1
    80    34    76    1
    81    34    77    1
    82    35    78    1
    83    35    79    1
    84    35    80    1
    85    36    81    1
    86    36    82    1
    87    36    83    1
