@<TRIPOS>MOLECULE
IMPHY016727
 26 27 0 0 0
SMALL
GASTEIGER

@<TRIPOS>ATOM
      1 O           5.5443   -1.1824    0.0000 O.3     1  UNL1       -0.4565
      2 O           7.1279   -0.3776    0.0000 O.2     1  UNL1       -0.2502
      3 C           4.5981   -0.8776    0.0000 C.3     1  UNL1        0.1252
      4 C           2.8660   -0.8776    0.0000 C.3     1  UNL1       -0.0368
      5 C           3.7320   -1.3776    0.0000 C.3     1  UNL1       -0.0088
      6 C           4.5981    0.1224    0.0000 C.2     1  UNL1       -0.0201
      7 C           5.5443    0.4271    0.0000 C.3     1  UNL1        0.0780
      8 C           2.8660    0.1224    0.0000 C.3     1  UNL1       -0.0317
      9 C           3.7320    0.6224    0.0000 C.2     1  UNL1       -0.0803
     10 C           6.1279   -0.3776    0.0000 C.2     1  UNL1        0.3147
     11 C           2.0000   -1.3776    0.0000 C.3     1  UNL1       -0.0620
     12 C           5.8550    1.3776    0.0000 C.3     1  UNL1       -0.0484
     13 H           4.6637   -1.4942    0.0000 H       1  UNL1        0.0782
     14 H           2.8660   -1.4976    0.0000 H       1  UNL1        0.0302
     15 H           3.3335   -1.8526    0.0000 H       1  UNL1        0.0307
     16 H           4.1306   -1.8526    0.0000 H       1  UNL1        0.0307
     17 H           5.1068    0.8665    0.0000 H       1  UNL1        0.0457
     18 H           2.6540    0.7050    0.0000 H       1  UNL1        0.0310
     19 H           2.2554    0.0147    0.0000 H       1  UNL1        0.0310
     20 H           3.7320    1.2424    0.0000 H       1  UNL1        0.0573
     21 H           1.6900   -0.8407    0.0000 H       1  UNL1        0.0233
     22 H           1.4631   -1.6876    0.0000 H       1  UNL1        0.0233
     23 H           2.3100   -1.9146    0.0000 H       1  UNL1        0.0233
     24 H           6.4443    1.1850    0.0000 H       1  UNL1        0.0241
     25 H           6.0476    1.9670    0.0000 H       1  UNL1        0.0241
     26 H           5.2656    1.5702    0.0000 H       1  UNL1        0.0241
@<TRIPOS>BOND
     1     1     3    1
     2     1    10    1
     3     2    10    2
     4     3     5    1
     5     3     6    1
     6     3    13    1
     7     4     5    1
     8     4     8    1
     9     4    11    1
    10     4    14    1
    11     5    15    1
    12     5    16    1
    13     6     7    1
    14     6     9    2
    15     7    10    1
    16     7    12    1
    17     7    17    1
    18     8     9    1
    19     8    18    1
    20     8    19    1
    21     9    20    1
    22    11    21    1
    23    11    22    1
    24    11    23    1
    25    12    24    1
    26    12    25    1
    27    12    26    1
