@<TRIPOS>MOLECULE
IMPHY012228
 49 51 0 0 0
SMALL
GASTEIGER

@<TRIPOS>ATOM
      1 CL          6.9401    5.1648    0.0000 Cl      1  UNL1        0.0000
      2 O           2.4472    1.0391    0.0000 O.3     2  UNL2       -0.4914
      3 O           4.2505    2.0988    0.0000 O.3     2  UNL2       -0.4914
      4 O           1.5063    8.7672    0.0000 O.3     2  UNL2       -0.4907
      5 O           3.2722    9.8050    0.0000 O.3     2  UNL2       -0.4914
      6 N           1.5280    5.7358    0.0000 N.ar    2  UNL2       -0.1961
      7 C           0.6180    5.2289    0.0000 C.3     2  UNL2        0.1550
      8 C           0.6100    4.1873    0.0000 C.3     2  UNL2        0.0330
      9 C           2.3941    5.2358    0.0000 C.ar    2  UNL2        0.2159
     10 C           1.5121    3.6665    0.0000 C.ar    2  UNL2       -0.0243
     11 C           2.4101    4.1943    0.0000 C.ar    2  UNL2        0.0533
     12 C           1.5280    6.7358    0.0000 C.ar    2  UNL2        0.1831
     13 C           3.2601    5.7358    0.0000 C.ar    2  UNL2        0.0183
     14 C           2.3941    7.2358    0.0000 C.ar    2  UNL2        0.0909
     15 C           3.2601    6.7358    0.0000 C.ar    2  UNL2       -0.0022
     16 C           1.5037    2.5816    0.0000 C.ar    2  UNL2       -0.0121
     17 C           3.3621    3.6736    0.0000 C.ar    2  UNL2       -0.0026
     18 C           2.4434    2.0391    0.0000 C.ar    2  UNL2        0.1618
     19 C           3.3788    2.5888    0.0000 C.ar    2  UNL2        0.1623
     20 C           2.3780    8.2773    0.0000 C.ar    2  UNL2        0.1748
     21 C           4.1701    7.2426    0.0000 C.ar    2  UNL2       -0.0499
     22 C           3.2760    8.8050    0.0000 C.ar    2  UNL2        0.1623
     23 C           4.1781    8.2842    0.0000 C.ar    2  UNL2       -0.0157
     24 C           4.2621    1.0989    0.0000 C.3     2  UNL2        0.0790
     25 C           1.5831    0.5357    0.0000 C.3     2  UNL2        0.0790
     26 C           1.4947    9.7672    0.0000 C.3     2  UNL2        0.0790
     27 C           4.1363   10.3084    0.0000 C.3     2  UNL2        0.0790
     28 H           0.4135    5.8142    0.0000 H       2  UNL2        0.1034
     29 H           0.0064    5.1276    0.0000 H       2  UNL2        0.1034
     30 H           0.0000    4.2981    0.0000 H       2  UNL2        0.0375
     31 H           0.3965    3.6053    0.0000 H       2  UNL2        0.0375
     32 H           0.9911    7.0458    0.0000 H       2  UNL2        0.1384
     33 H           3.7970    5.4258    0.0000 H       2  UNL2        0.0690
     34 H           0.9656    2.2736    0.0000 H       2  UNL2        0.0658
     35 H           3.8929    3.9939    0.0000 H       2  UNL2        0.0663
     36 H           4.7034    6.9264    0.0000 H       2  UNL2        0.0625
     37 H           4.7163    8.5922    0.0000 H       2  UNL2        0.0655
     38 H           2.1147    9.7744    0.0000 H       2  UNL2        0.0660
     39 H           1.4875   10.3871    0.0000 H       2  UNL2        0.0660
     40 H           0.8747    9.7600    0.0000 H       2  UNL2        0.0660
     41 H           3.6421    1.0917    0.0000 H       2  UNL2        0.0660
     42 H           4.2693    0.4789    0.0000 H       2  UNL2        0.0660
     43 H           4.8821    1.1061    0.0000 H       2  UNL2        0.0660
     44 H           1.2711    1.0715    0.0000 H       2  UNL2        0.0660
     45 H           1.0474    0.2237    0.0000 H       2  UNL2        0.0660
     46 H           1.8952    0.0000    0.0000 H       2  UNL2        0.0660
     47 H           4.4484    9.7726    0.0000 H       2  UNL2        0.0660
     48 H           4.6720   10.6204    0.0000 H       2  UNL2        0.0660
     49 H           3.8242   10.8441    0.0000 H       2  UNL2        0.0660
@<TRIPOS>UNITY_ATOM_ATTR
1 1
charge -1
6 1
charge 1
@<TRIPOS>BOND
     1     2    18    1
     2     2    25    1
     3     3    19    1
     4     3    24    1
     5     4    20    1
     6     4    26    1
     7     5    22    1
     8     5    27    1
     9     6     7    1
    10     6     9   ar
    11     6    12   ar
    12     7     8    1
    13     7    28    1
    14     7    29    1
    15     8    10    1
    16     8    30    1
    17     8    31    1
    18     9    11    1
    19     9    13   ar
    20    10    11   ar
    21    10    16   ar
    22    11    17   ar
    23    12    14   ar
    24    12    32    1
    25    13    15   ar
    26    13    33    1
    27    14    15   ar
    28    14    20   ar
    29    15    21   ar
    30    16    18   ar
    31    16    34    1
    32    17    19   ar
    33    17    35    1
    34    18    19   ar
    35    20    22   ar
    36    21    23   ar
    37    21    36    1
    38    22    23   ar
    39    23    37    1
    40    24    41    1
    41    24    42    1
    42    24    43    1
    43    25    44    1
    44    25    45    1
    45    25    46    1
    46    26    38    1
    47    26    39    1
    48    26    40    1
    49    27    47    1
    50    27    48    1
    51    27    49    1
