@<TRIPOS>MOLECULE
IMPHY006286
 86 93 0 0 0
SMALL
GASTEIGER

@<TRIPOS>ATOM
      1 O           6.3894    3.3681    0.0000 O.3     1  UNL1       -0.3578
      2 O          10.1539    1.4226    0.0000 O.3     1  UNL1       -0.3329
      3 O           3.6747    1.7818    0.0000 O.3     1  UNL1       -0.3730
      4 O           7.2817   -0.3791    0.0000 O.3     1  UNL1       -0.3505
      5 O           5.5238    3.1358    0.0000 O.3     1  UNL1       -0.3886
      6 O           6.4116   -1.3956    0.0000 O.3     1  UNL1       -0.4573
      7 O           9.3568    3.7892    0.0000 O.3     1  UNL1       -0.3778
      8 O           8.2285    0.9251    0.0000 O.3     1  UNL1       -0.3667
      9 O          11.5830    2.6706    0.0000 O.2     1  UNL1       -0.4680
     10 O           2.8718   -1.4093    0.0000 O.3     1  UNL1       -0.4608
     11 O           5.5630   -2.9055    0.0000 O.2     1  UNL1       -0.2453
     12 O           3.7320   -2.9126    0.0000 O.2     1  UNL1       -0.2512
     13 C           6.8898    2.5019    0.0000 C.3     1  UNL1        0.1334
     14 C           6.3898    1.6358    0.0000 C.3     1  UNL1        0.0386
     15 C           7.3898    3.3679    0.0000 C.3     1  UNL1        0.1055
     16 C           6.3898    0.6358    0.0000 C.3     1  UNL1        0.0320
     17 C           5.5238    0.1358    0.0000 C.3     1  UNL1        0.0453
     18 C           8.6094    2.5143    0.0000 C.3     1  UNL1        0.0316
     19 C           8.1094    1.6483    0.0000 C.3     1  UNL1        0.0955
     20 C           4.6578    0.6358    0.0000 C.3     1  UNL1        0.0101
     21 C           5.5238    2.1358    0.0000 C.3     1  UNL1        0.0902
     22 C           4.6578    1.6358    0.0000 C.3     1  UNL1        0.0893
     23 C           8.5666    0.5085    0.0000 C.3     1  UNL1       -0.0149
     24 C           3.7478    0.1290    0.0000 C.3     1  UNL1        0.0343
     25 C          10.0129    3.0345    0.0000 C.3     1  UNL1        0.1545
     26 C           5.5399   -0.9057    0.0000 C.3     1  UNL1        0.1152
     27 C           7.3898    1.6358    0.0000 C.3     1  UNL1       -0.0538
     28 C           7.3616    0.4266    0.0000 C.3     1  UNL1        0.1603
     29 C           6.1909   -0.6012    0.0000 C.3     1  UNL1        0.0604
     30 C           7.8898    4.2339    0.0000 C.3     1  UNL1       -0.0326
     31 C           3.7398   -0.9126    0.0000 C.3     1  UNL1        0.1142
     32 C          10.6689    2.2798    0.0000 C.3     1  UNL1        0.2342
     33 C           3.1610    0.9311    0.0000 C.3     1  UNL1        0.0572
     34 C           4.6418   -1.4334    0.0000 C.3     1  UNL1        0.0228
     35 C           2.7478    0.1405    0.0000 C.3     1  UNL1       -0.0537
     36 C          10.5271    3.8852    0.0000 C.2     1  UNL1       -0.0121
     37 C          11.4955    3.6608    0.0000 C.2     1  UNL1        0.0870
     38 C           6.4232   -2.3956    0.0000 C.2     1  UNL1        0.3348
     39 C           2.8680   -2.4093    0.0000 C.2     1  UNL1        0.3042
     40 C           7.2949   -2.8855    0.0000 C.2     1  UNL1        0.0293
     41 C           2.0000   -2.9059    0.0000 C.3     1  UNL1        0.0332
     42 C           8.1551   -2.3755    0.0000 C.3     1  UNL1       -0.0333
     43 C           7.3065   -3.8854    0.0000 C.2     1  UNL1       -0.0774
     44 C           8.1782   -4.3754    0.0000 C.3     1  UNL1       -0.0461
     45 H           7.0511    1.1699    0.0000 H       1  UNL1        0.0364
     46 H           9.0344    3.2504    0.0000 H       1  UNL1        0.0363
     47 H           8.4091    2.4437    0.0000 H       1  UNL1        0.0627
     48 H           4.6578   -0.2142    0.0000 H       1  UNL1        0.0341
     49 H           4.9869    2.4458    0.0000 H       1  UNL1        0.0626
     50 H           4.4988    2.4708    0.0000 H       1  UNL1        0.0625
     51 H           8.1218    0.0766    0.0000 H       1  UNL1        0.0296
     52 H           9.1350    0.2610    0.0000 H       1  UNL1        0.0296
     53 H           5.5458   -1.5256    0.0000 H       1  UNL1        0.0742
     54 H           7.3898    1.0158    0.0000 H       1  UNL1        0.0237
     55 H           8.0098    1.6358    0.0000 H       1  UNL1        0.0237
     56 H           7.3898    2.2558    0.0000 H       1  UNL1        0.0237
     57 H           7.8823    0.0900    0.0000 H       1  UNL1        0.0911
     58 H           5.6647   -0.9291    0.0000 H       1  UNL1        0.0568
     59 H           6.4204   -1.1772    0.0000 H       1  UNL1        0.0568
     60 H           8.4268    3.9239    0.0000 H       1  UNL1        0.0258
     61 H           8.1998    4.7708    0.0000 H       1  UNL1        0.0258
     62 H           7.3529    4.5439    0.0000 H       1  UNL1        0.0258
     63 H           3.7386   -1.5326    0.0000 H       1  UNL1        0.0741
     64 H          11.2266    1.6383    0.0000 H       1  UNL1        0.1090
     65 H           2.6770    1.3186    0.0000 H       1  UNL1        0.0567
     66 H           2.7131    0.5023    0.0000 H       1  UNL1        0.0567
     67 H           4.2445   -1.9094    0.0000 H       1  UNL1        0.0337
     68 H           5.0428   -1.9063    0.0000 H       1  UNL1        0.0337
     69 H           2.7550    0.7605    0.0000 H       1  UNL1        0.0237
     70 H           2.1279    0.1477    0.0000 H       1  UNL1        0.0237
     71 H           2.7407   -0.4794    0.0000 H       1  UNL1        0.0237
     72 H           4.9869    3.4458    0.0000 H       1  UNL1        0.2099
     73 H          10.2858    4.4564    0.0000 H       1  UNL1        0.0633
     74 H           9.5587    4.3754    0.0000 H       1  UNL1        0.2109
     75 H           8.8115    1.1362    0.0000 H       1  UNL1        0.2125
     76 H          11.9634    4.0675    0.0000 H       1  UNL1        0.1022
     77 H           1.6921   -2.3678    0.0000 H       1  UNL1        0.0342
     78 H           1.4619   -3.2138    0.0000 H       1  UNL1        0.0342
     79 H           2.3079   -3.4440    0.0000 H       1  UNL1        0.0342
     80 H           8.4713   -2.9088    0.0000 H       1  UNL1        0.0280
     81 H           8.6884   -2.0593    0.0000 H       1  UNL1        0.0280
     82 H           7.8389   -1.8422    0.0000 H       1  UNL1        0.0280
     83 H           6.7732   -4.2016    0.0000 H       1  UNL1        0.0574
     84 H           7.8745   -4.9159    0.0000 H       1  UNL1        0.0272
     85 H           8.7187   -4.6792    0.0000 H       1  UNL1        0.0272
     86 H           8.4820   -3.8349    0.0000 H       1  UNL1        0.0272
@<TRIPOS>BOND
     1    13     1    1
     2     1    15    1
     3     2    19    1
     4     2    32    1
     5     3    22    1
     6     3    33    1
     7     4    28    1
     8     4    29    1
     9    21     5    1
    10     5    72    1
    11    26     6    1
    12     6    38    1
    13    25     7    1
    14     7    74    1
    15    28     8    1
    16     8    75    1
    17     9    32    1
    18     9    37    1
    19    31    10    1
    20    10    39    1
    21    11    38    2
    22    12    39    2
    23    13    14    1
    24    13    15    1
    25    13    19    1
    26    14    16    1
    27    14    21    1
    28    14    27    1
    29    15    18    1
    30    15    30    1
    31    16    17    1
    32    16    28    1
    33    16    45    1
    34    17    20    1
    35    17    26    1
    36    17    29    1
    37    18    23    1
    38    18    25    1
    39    18    46    1
    40    19    23    1
    41    19    47    1
    42    20    22    1
    43    20    24    1
    44    20    48    1
    45    21    22    1
    46    21    49    1
    47    22    50    1
    48    23    51    1
    49    23    52    1
    50    24    31    1
    51    24    33    1
    52    24    35    1
    53    25    32    1
    54    25    36    1
    55    26    34    1
    56    26    53    1
    57    27    54    1
    58    27    55    1
    59    27    56    1
    60    28    57    1
    61    29    58    1
    62    29    59    1
    63    30    60    1
    64    30    61    1
    65    30    62    1
    66    31    34    1
    67    31    63    1
    68    32    64    1
    69    33    65    1
    70    33    66    1
    71    34    67    1
    72    34    68    1
    73    35    69    1
    74    35    70    1
    75    35    71    1
    76    36    37    2
    77    36    73    1
    78    37    76    1
    79    38    40    1
    80    39    41    1
    81    40    42    1
    82    40    43    2
    83    41    77    1
    84    41    78    1
    85    41    79    1
    86    42    80    1
    87    42    81    1
    88    42    82    1
    89    43    44    1
    90    43    83    1
    91    44    84    1
    92    44    85    1
    93    44    86    1
