@<TRIPOS>MOLECULE
IMPHY014302
 88 91 0 0 0
SMALL
GASTEIGER

@<TRIPOS>ATOM
      1 O          10.4586   -1.2518    0.0000 O.3     1  UNL1       -0.3914
      2 O           5.3307   -0.2518    0.0000 O.2     1  UNL1       -0.2968
      3 O          10.1362    0.1928    0.0000 O.3     1  UNL1       -0.3810
      4 O           2.5357   -3.8042    0.0000 O.3     1  UNL1       -0.3834
      5 O           8.8285    2.1982    0.0000 O.2     1  UNL1       -0.2943
      6 O           2.5519   -1.7126    0.0000 O.2     1  UNL1       -0.2946
      7 O          12.7425    3.0231    0.0000 O.3     1  UNL1       -0.4588
      8 O          12.3854    4.7179    0.0000 O.2     1  UNL1       -0.2511
      9 C           7.9288   -1.7518    0.0000 C.3     1  UNL1       -0.0195
     10 C           7.9288   -0.7518    0.0000 C.3     1  UNL1       -0.0115
     11 C           7.0628   -2.2518    0.0000 C.3     1  UNL1       -0.0189
     12 C           6.1968   -1.7518    0.0000 C.3     1  UNL1        0.0367
     13 C           8.8750   -0.4471    0.0000 C.3     1  UNL1        0.0268
     14 C           8.8750   -2.0566    0.0000 C.3     1  UNL1       -0.0202
     15 C           9.4586   -1.2518    0.0000 C.3     1  UNL1        0.0621
     16 C           7.0628   -0.2518    0.0000 C.3     1  UNL1        0.0127
     17 C           5.2868   -2.2587    0.0000 C.3     1  UNL1       -0.0002
     18 C           6.1968   -0.7518    0.0000 C.2     1  UNL1        0.1406
     19 C           7.0789   -3.2933    0.0000 C.3     1  UNL1       -0.0302
     20 C           7.9288   -2.7518    0.0000 C.3     1  UNL1       -0.0587
     21 C           7.9288    0.2482    0.0000 C.3     1  UNL1       -0.0582
     22 C           9.1857    0.5034    0.0000 C.3     1  UNL1        0.1264
     23 C           5.2787   -3.3003    0.0000 C.2     1  UNL1       -0.0605
     24 C           5.3307   -1.2518    0.0000 C.3     1  UNL1       -0.0520
     25 C           6.1808   -3.8211    0.0000 C.2     1  UNL1       -0.0835
     26 C           4.3599   -1.6946    0.0000 C.3     1  UNL1        0.0159
     27 C           4.3433   -3.8500    0.0000 C.3     1  UNL1        0.0192
     28 C           8.2352    0.8141    0.0000 C.3     1  UNL1       -0.0287
     29 C           3.4037   -3.3075    0.0000 C.3     1  UNL1        0.1217
     30 C           9.4964    1.4540    0.0000 C.2     1  UNL1        0.1648
     31 C           3.4120   -2.2225    0.0000 C.2     1  UNL1        0.1630
     32 C           3.8467   -4.7179    0.0000 C.3     1  UNL1       -0.0533
     33 C           4.8466   -4.7141    0.0000 C.3     1  UNL1       -0.0533
     34 C          10.4749    1.6602    0.0000 C.3     1  UNL1        0.0123
     35 C          10.7855    2.6107    0.0000 C.3     1  UNL1       -0.0066
     36 C          11.7640    2.8169    0.0000 C.3     1  UNL1        0.1084
     37 C          11.5578    3.7954    0.0000 C.3     1  UNL1       -0.0251
     38 C          11.9703    1.8384    0.0000 C.3     1  UNL1       -0.0251
     39 C          13.0532    3.9736    0.0000 C.2     1  UNL1        0.3044
     40 C          14.0317    4.1799    0.0000 C.3     1  UNL1        0.0333
     41 H           7.6021   -2.5577    0.0000 H       1  UNL1        0.0319
     42 H           9.4875   -0.3509    0.0000 H       1  UNL1        0.0363
     43 H           8.6240   -2.6235    0.0000 H       1  UNL1        0.0296
     44 H           9.4124   -2.3658    0.0000 H       1  UNL1        0.0296
     45 H           9.7404   -1.8041    0.0000 H       1  UNL1        0.0597
     46 H           7.4613    0.2231    0.0000 H       1  UNL1        0.0347
     47 H           6.6643    0.2231    0.0000 H       1  UNL1        0.0347
     48 H           5.8201   -2.5749    0.0000 H       1  UNL1        0.0359
     49 H           7.2969   -3.8737    0.0000 H       1  UNL1        0.0311
     50 H           7.6880   -3.1778    0.0000 H       1  UNL1        0.0311
     51 H           7.3088   -2.7518    0.0000 H       1  UNL1        0.0235
     52 H           7.9288   -3.3718    0.0000 H       1  UNL1        0.0235
     53 H           8.5488   -2.7518    0.0000 H       1  UNL1        0.0235
     54 H           8.5488    0.2482    0.0000 H       1  UNL1        0.0235
     55 H           7.9288    0.8682    0.0000 H       1  UNL1        0.0235
     56 H           7.3088    0.2482    0.0000 H       1  UNL1        0.0235
     57 H           5.6407   -0.7149    0.0000 H       1  UNL1        0.0239
     58 H           4.7938   -0.9418    0.0000 H       1  UNL1        0.0239
     59 H           5.0207   -1.7888    0.0000 H       1  UNL1        0.0239
     60 H           6.1832   -4.4411    0.0000 H       1  UNL1        0.0572
     61 H           4.7681   -1.2279    0.0000 H       1  UNL1        0.0349
     62 H           3.9700   -1.2126    0.0000 H       1  UNL1        0.0349
     63 H          10.7687   -1.7888    0.0000 H       1  UNL1        0.2098
     64 H           8.4278    1.4034    0.0000 H       1  UNL1        0.0262
     65 H           7.6459    1.0067    0.0000 H       1  UNL1        0.0262
     66 H           8.0426    0.2248    0.0000 H       1  UNL1        0.0262
     67 H           3.4025   -3.9275    0.0000 H       1  UNL1        0.0681
     68 H          10.5977    0.6068    0.0000 H       1  UNL1        0.2107
     69 H           3.3085   -4.4100    0.0000 H       1  UNL1        0.0239
     70 H           3.5387   -5.2561    0.0000 H       1  UNL1        0.0239
     71 H           4.3848   -5.0259    0.0000 H       1  UNL1        0.0239
     72 H           4.3109   -5.0262    0.0000 H       1  UNL1        0.0239
     73 H           5.1587   -5.2498    0.0000 H       1  UNL1        0.0239
     74 H           5.3824   -4.4020    0.0000 H       1  UNL1        0.0239
     75 H          10.4954    1.0405    0.0000 H       1  UNL1        0.0344
     76 H          11.0887    1.5728    0.0000 H       1  UNL1        0.0344
     77 H           2.0000   -3.4921    0.0000 H       1  UNL1        0.2104
     78 H          10.7650    3.2303    0.0000 H       1  UNL1        0.0307
     79 H          10.1717    2.6980    0.0000 H       1  UNL1        0.0307
     80 H          12.1645    3.9233    0.0000 H       1  UNL1        0.0268
     81 H          11.4300    4.4021    0.0000 H       1  UNL1        0.0268
     82 H          10.9511    3.6676    0.0000 H       1  UNL1        0.0268
     83 H          11.3636    1.7105    0.0000 H       1  UNL1        0.0268
     84 H          12.0981    1.2317    0.0000 H       1  UNL1        0.0268
     85 H          12.5769    1.9662    0.0000 H       1  UNL1        0.0268
     86 H          14.1596    3.5732    0.0000 H       1  UNL1        0.0342
     87 H          14.6384    4.3077    0.0000 H       1  UNL1        0.0342
     88 H          13.9039    4.7865    0.0000 H       1  UNL1        0.0342
@<TRIPOS>BOND
     1     1    15    1
     2     1    63    1
     3     2    18    2
     4     3    22    1
     5     3    68    1
     6     4    29    1
     7     4    77    1
     8     5    30    2
     9     6    31    2
    10     7    36    1
    11     7    39    1
    12     8    39    2
    13     9    10    1
    14     9    11    1
    15     9    14    1
    16     9    20    1
    17    10    13    1
    18    10    16    1
    19    10    21    1
    20    11    12    1
    21    11    19    1
    22    11    41    1
    23    12    17    1
    24    12    18    1
    25    12    24    1
    26    13    15    1
    27    13    22    1
    28    13    42    1
    29    14    15    1
    30    14    43    1
    31    14    44    1
    32    15    45    1
    33    16    18    1
    34    16    46    1
    35    16    47    1
    36    17    23    1
    37    17    26    1
    38    17    48    1
    39    19    25    1
    40    19    49    1
    41    19    50    1
    42    20    51    1
    43    20    52    1
    44    20    53    1
    45    21    54    1
    46    21    55    1
    47    21    56    1
    48    22    28    1
    49    22    30    1
    50    23    25    2
    51    23    27    1
    52    24    57    1
    53    24    58    1
    54    24    59    1
    55    25    60    1
    56    26    31    1
    57    26    61    1
    58    26    62    1
    59    27    29    1
    60    27    32    1
    61    27    33    1
    62    28    64    1
    63    28    65    1
    64    28    66    1
    65    29    31    1
    66    29    67    1
    67    30    34    1
    68    32    69    1
    69    32    70    1
    70    32    71    1
    71    33    72    1
    72    33    73    1
    73    33    74    1
    74    34    35    1
    75    34    75    1
    76    34    76    1
    77    35    36    1
    78    35    78    1
    79    35    79    1
    80    36    37    1
    81    36    38    1
    82    37    80    1
    83    37    81    1
    84    37    82    1
    85    38    83    1
    86    38    84    1
    87    38    85    1
    88    39    40    1
    89    40    86    1
    90    40    87    1
    91    40    88    1
