@<TRIPOS>MOLECULE
IMPHY010569
 74 77 0 0 0
SMALL
GASTEIGER

@<TRIPOS>ATOM
      1 O           8.3671    2.7705    0.0000 O.3     1  UNL1       -0.3620
      2 O           5.8671    3.6365    0.0000 O.3     1  UNL1       -0.3864
      3 O           6.3671    2.7705    0.0000 O.3     1  UNL1       -0.3714
      4 O           6.8671    5.3686    0.0000 O.3     1  UNL1       -0.3865
      5 O           8.8671    5.3686    0.0000 O.3     1  UNL1       -0.3865
      6 O           5.1350    1.9045    0.0000 O.2     1  UNL1       -0.2886
      7 O          10.3671    4.5026    0.0000 O.3     1  UNL1       -0.3924
      8 O           8.5991    1.9045    0.0000 O.2     1  UNL1       -0.2881
      9 O           6.8671   -1.0955    0.0000 O.2     1  UNL1       -0.5055
     10 O           9.4651    0.4045    0.0000 O.2     1  UNL1       -0.5059
     11 O           2.5369    0.4045    0.0000 O.3     1  UNL1       -0.4806
     12 O           3.4030   -1.0955    0.0000 O.2     1  UNL1       -0.2510
     13 O           5.1350   -4.0955    0.0000 O.3     1  UNL1       -0.5068
     14 O           9.4651   -5.5955    0.0000 O.3     1  UNL1       -0.5068
     15 C           7.3671    2.7705    0.0000 C.3     1  UNL1        0.1307
     16 C           6.8671    3.6365    0.0000 C.3     1  UNL1        0.1132
     17 C           6.8671    1.9045    0.0000 C.3     1  UNL1        0.2192
     18 C           7.3671    4.5026    0.0000 C.3     1  UNL1        0.1119
     19 C           8.3671    4.5026    0.0000 C.3     1  UNL1        0.1117
     20 C           8.8671    3.6365    0.0000 C.3     1  UNL1        0.1105
     21 C           6.0010    1.4045    0.0000 C.2     1  UNL1        0.2050
     22 C           7.7331    1.4045    0.0000 C.2     1  UNL1        0.2119
     23 C           9.8671    3.6365    0.0000 C.3     1  UNL1        0.0729
     24 C           6.0010    0.4045    0.0000 C.2     1  UNL1        0.0485
     25 C           5.1350   -0.0955    0.0000 C.3     1  UNL1        0.0262
     26 C           7.7331    0.4045    0.0000 C.2     1  UNL1        0.1039
     27 C           6.8671   -0.0955    0.0000 C.2     1  UNL1        0.1381
     28 C           4.2690    0.4045    0.0000 C.3     1  UNL1        0.0558
     29 C           5.1350   -1.0955    0.0000 C.ar    1  UNL1       -0.0390
     30 C           8.5991   -0.0955    0.0000 C.2     1  UNL1        0.1310
     31 C           4.2690   -1.5955    0.0000 C.ar    1  UNL1       -0.0545
     32 C           6.0010   -1.5955    0.0000 C.ar    1  UNL1       -0.0545
     33 C           3.4030   -0.0955    0.0000 C.2     1  UNL1        0.3056
     34 C           8.5991   -1.0955    0.0000 C.2     1  UNL1       -0.0188
     35 C           4.2690   -2.5955    0.0000 C.ar    1  UNL1       -0.0199
     36 C           6.0010   -2.5955    0.0000 C.ar    1  UNL1       -0.0199
     37 C           5.1350   -3.0955    0.0000 C.ar    1  UNL1        0.1169
     38 C           9.4651   -1.5955    0.0000 C.2     1  UNL1       -0.0511
     39 C           9.4651   -2.5955    0.0000 C.ar    1  UNL1       -0.0247
     40 C           8.5991   -3.0955    0.0000 C.ar    1  UNL1       -0.0511
     41 C          10.3312   -3.0955    0.0000 C.ar    1  UNL1       -0.0511
     42 C           8.5991   -4.0955    0.0000 C.ar    1  UNL1       -0.0196
     43 C          10.3312   -4.0955    0.0000 C.ar    1  UNL1       -0.0196
     44 C           9.4651   -4.5955    0.0000 C.ar    1  UNL1        0.1169
     45 H           7.7921    2.0344    0.0000 H       1  UNL1        0.0661
     46 H           6.5571    3.0996    0.0000 H       1  UNL1        0.0647
     47 H           7.6771    5.0395    0.0000 H       1  UNL1        0.0647
     48 H           8.9871    4.5026    0.0000 H       1  UNL1        0.0647
     49 H           9.1771    3.0996    0.0000 H       1  UNL1        0.0646
     50 H           9.7594    3.0260    0.0000 H       1  UNL1        0.0584
     51 H          10.4497    3.4245    0.0000 H       1  UNL1        0.0584
     52 H           5.1350    0.5245    0.0000 H       1  UNL1        0.0405
     53 H           5.5571    4.1735    0.0000 H       1  UNL1        0.2100
     54 H           5.7471    2.7705    0.0000 H       1  UNL1        0.2114
     55 H           7.1771    5.9055    0.0000 H       1  UNL1        0.2100
     56 H           8.5571    5.9055    0.0000 H       1  UNL1        0.2100
     57 H           4.6675    0.8794    0.0000 H       1  UNL1        0.0387
     58 H           3.8705    0.8794    0.0000 H       1  UNL1        0.0387
     59 H          10.9871    4.5026    0.0000 H       1  UNL1        0.2095
     60 H           7.4040   -1.4055    0.0000 H       1  UNL1        0.2922
     61 H           3.7320   -1.2855    0.0000 H       1  UNL1        0.0622
     62 H           6.5380   -1.2855    0.0000 H       1  UNL1        0.0622
     63 H           8.0622   -1.4055    0.0000 H       1  UNL1        0.0654
     64 H          10.0021    0.0945    0.0000 H       1  UNL1        0.2922
     65 H           3.7320   -2.9055    0.0000 H       1  UNL1        0.0654
     66 H           6.5380   -2.9055    0.0000 H       1  UNL1        0.0654
     67 H          10.0021   -1.2855    0.0000 H       1  UNL1        0.0625
     68 H           2.0000    0.0945    0.0000 H       1  UNL1        0.2951
     69 H           4.5981   -4.4055    0.0000 H       1  UNL1        0.2921
     70 H           8.0622   -2.7855    0.0000 H       1  UNL1        0.0625
     71 H          10.8681   -2.7855    0.0000 H       1  UNL1        0.0625
     72 H           8.0622   -4.4055    0.0000 H       1  UNL1        0.0654
     73 H          10.8681   -4.4055    0.0000 H       1  UNL1        0.0654
     74 H          10.0021   -5.9055    0.0000 H       1  UNL1        0.2921
@<TRIPOS>BOND
     1     1    15    1
     2     1    20    1
     3    16     2    1
     4     2    53    1
     5     3    17    1
     6     3    54    1
     7    18     4    1
     8     4    55    1
     9    19     5    1
    10     5    56    1
    11     6    21    2
    12     7    23    1
    13     7    59    1
    14     8    22    2
    15     9    27    1
    16     9    60    1
    17    10    30    1
    18    10    64    1
    19    11    33    1
    20    11    68    1
    21    12    33    2
    22    13    37    1
    23    13    69    1
    24    14    44    1
    25    14    74    1
    26    15    16    1
    27    15    17    1
    28    15    45    1
    29    16    18    1
    30    16    46    1
    31    17    21    1
    32    17    22    1
    33    18    19    1
    34    18    47    1
    35    19    20    1
    36    19    48    1
    37    20    23    1
    38    20    49    1
    39    21    24    1
    40    22    26    1
    41    23    50    1
    42    23    51    1
    43    24    25    1
    44    24    27    2
    45    25    28    1
    46    25    29    1
    47    25    52    1
    48    26    27    1
    49    26    30    2
    50    28    33    1
    51    28    57    1
    52    28    58    1
    53    29    31   ar
    54    29    32   ar
    55    30    34    1
    56    31    35   ar
    57    31    61    1
    58    32    36   ar
    59    32    62    1
    60    34    38    2
    61    34    63    1
    62    35    37   ar
    63    35    65    1
    64    36    37   ar
    65    36    66    1
    66    38    39    1
    67    38    67    1
    68    39    40   ar
    69    39    41   ar
    70    40    42   ar
    71    40    70    1
    72    41    43   ar
    73    41    71    1
    74    42    44   ar
    75    42    72    1
    76    43    44   ar
    77    43    73    1
