@<TRIPOS>MOLECULE
IMPHY002734
 57 56 0 0 0
SMALL
GASTEIGER

@<TRIPOS>ATOM
      1 O           3.7320    0.4400    0.0000 O.3     1  UNL1       -0.4627
      2 O           2.0000    0.4400    0.0000 O.2     1  UNL1       -0.2546
      3 C          10.6603    0.4400    0.0000 C.3     1  UNL1       -0.0286
      4 C          11.5263   -0.0600    0.0000 C.3     1  UNL1       -0.0308
      5 C           9.7942   -0.0600    0.0000 C.2     1  UNL1       -0.0762
      6 C          13.2583   -0.0600    0.0000 C.2     1  UNL1       -0.0762
      7 C          14.1244    0.4400    0.0000 C.3     1  UNL1       -0.0286
      8 C           8.0622   -0.0600    0.0000 C.3     1  UNL1       -0.0308
      9 C          12.3923    0.4400    0.0000 C.2     1  UNL1       -0.0847
     10 C           8.9282    0.4400    0.0000 C.2     1  UNL1       -0.0847
     11 C           7.1962    0.4400    0.0000 C.3     1  UNL1       -0.0285
     12 C          14.9904   -0.0600    0.0000 C.3     1  UNL1       -0.0308
     13 C           9.7942   -1.0600    0.0000 C.3     1  UNL1       -0.0438
     14 C           6.3301   -0.0600    0.0000 C.2     1  UNL1       -0.0731
     15 C          13.2583   -1.0600    0.0000 C.3     1  UNL1       -0.0438
     16 C          15.8564    0.4400    0.0000 C.2     1  UNL1       -0.0850
     17 C           6.3301   -1.0600    0.0000 C.3     1  UNL1       -0.0437
     18 C           5.4641    0.4400    0.0000 C.2     1  UNL1       -0.0480
     19 C          16.7224   -0.0600    0.0000 C.2     1  UNL1       -0.0796
     20 C           4.5981   -0.0600    0.0000 C.3     1  UNL1        0.1107
     21 C          17.5885    0.4400    0.0000 C.3     1  UNL1       -0.0440
     22 C          16.7224   -1.0600    0.0000 C.3     1  UNL1       -0.0440
     23 C           2.8660   -0.0600    0.0000 C.2     1  UNL1        0.2945
     24 H          11.0588    0.9149    0.0000 H       1  UNL1        0.0313
     25 H          10.2617    0.9149    0.0000 H       1  UNL1        0.0313
     26 H          11.1278   -0.5349    0.0000 H       1  UNL1        0.0310
     27 H          11.9248   -0.5349    0.0000 H       1  UNL1        0.0310
     28 H          14.5229    0.9149    0.0000 H       1  UNL1        0.0313
     29 H          13.7258    0.9149    0.0000 H       1  UNL1        0.0313
     30 H           7.6636   -0.5349    0.0000 H       1  UNL1        0.0310
     31 H           8.4607   -0.5349    0.0000 H       1  UNL1        0.0310
     32 H          12.3923    1.0600    0.0000 H       1  UNL1        0.0572
     33 H           7.5947    0.9149    0.0000 H       1  UNL1        0.0313
     34 H           6.7976    0.9149    0.0000 H       1  UNL1        0.0313
     35 H           8.9282    1.0600    0.0000 H       1  UNL1        0.0572
     36 H          14.5919   -0.5349    0.0000 H       1  UNL1        0.0310
     37 H          15.3889   -0.5349    0.0000 H       1  UNL1        0.0310
     38 H           9.1742   -1.0600    0.0000 H       1  UNL1        0.0274
     39 H           9.7942   -1.6800    0.0000 H       1  UNL1        0.0274
     40 H          10.4142   -1.0600    0.0000 H       1  UNL1        0.0274
     41 H          12.6383   -1.0600    0.0000 H       1  UNL1        0.0274
     42 H          13.2583   -1.6800    0.0000 H       1  UNL1        0.0274
     43 H          13.8783   -1.0600    0.0000 H       1  UNL1        0.0274
     44 H          15.8564    1.0600    0.0000 H       1  UNL1        0.0572
     45 H           5.7101   -1.0600    0.0000 H       1  UNL1        0.0274
     46 H           6.3301   -1.6800    0.0000 H       1  UNL1        0.0274
     47 H           6.9501   -1.0600    0.0000 H       1  UNL1        0.0274
     48 H           5.4641    1.0600    0.0000 H       1  UNL1        0.0605
     49 H           4.1996   -0.5349    0.0000 H       1  UNL1        0.0743
     50 H           4.9966   -0.5349    0.0000 H       1  UNL1        0.0743
     51 H          17.8985   -0.0969    0.0000 H       1  UNL1        0.0274
     52 H          18.1254    0.7500    0.0000 H       1  UNL1        0.0274
     53 H          16.1024   -1.0600    0.0000 H       1  UNL1        0.0274
     54 H          16.7224   -1.6800    0.0000 H       1  UNL1        0.0274
     55 H          17.3424   -1.0600    0.0000 H       1  UNL1        0.0274
     56 H          17.2785    0.9769    0.0000 H       1  UNL1        0.0274
     57 H           2.8660   -0.6800    0.0000 H       1  UNL1        0.1512
@<TRIPOS>BOND
     1     1    20    1
     2     1    23    1
     3     2    23    2
     4     3     4    1
     5     3     5    1
     6     3    24    1
     7     3    25    1
     8     4     9    1
     9     4    26    1
    10     4    27    1
    11     5    10    2
    12     5    13    1
    13     6     7    1
    14     6     9    2
    15     6    15    1
    16     7    12    1
    17     7    28    1
    18     7    29    1
    19     8    10    1
    20     8    11    1
    21     8    30    1
    22     8    31    1
    23     9    32    1
    24    10    35    1
    25    11    14    1
    26    11    33    1
    27    11    34    1
    28    12    16    1
    29    12    36    1
    30    12    37    1
    31    13    38    1
    32    13    39    1
    33    13    40    1
    34    14    17    1
    35    14    18    2
    36    15    41    1
    37    15    42    1
    38    15    43    1
    39    16    19    2
    40    16    44    1
    41    17    45    1
    42    17    46    1
    43    17    47    1
    44    18    20    1
    45    18    48    1
    46    19    21    1
    47    19    22    1
    48    20    49    1
    49    20    50    1
    50    21    51    1
    51    21    52    1
    52    21    56    1
    53    22    53    1
    54    22    54    1
    55    22    55    1
    56    23    57    1
