@<TRIPOS>MOLECULE
IMPHY010778
 33 36 0 0 0
SMALL
GASTEIGER

@<TRIPOS>ATOM
      1 C           5.6115   -4.5567    0.0000 C.3     1  UNL1       -0.0033
      2 C           5.6115   -5.8647    0.0000 C.3     1  UNL1       -0.0046
      3 C           3.4175   -5.8647    0.0000 C.3     1  UNL1       -0.0021
      4 C           4.5145   -6.4975    0.0000 C.2     1  UNL1       -0.0569
      5 C           2.2784   -6.4975    0.0000 C.3     1  UNL1        0.0282
      6 C           6.7507   -3.8816    0.0000 C.3     1  UNL1       -0.0153
      7 C           4.5145   -3.8816    0.0000 C.3     1  UNL1       -0.0003
      8 C           3.4175   -4.5567    0.0000 C.3     1  UNL1       -0.0002
      9 C           7.8899   -5.8647    0.0000 C.3     1  UNL1       -0.0005
     10 C           7.8899   -4.5567    0.0000 C.3     1  UNL1       -0.0036
     11 C           4.5145   -7.8055    0.0000 C.2     1  UNL1       -0.0352
     12 C           2.2784   -7.8055    0.0000 C.3     1  UNL1        0.0067
     13 C           3.4175   -8.4384    0.0000 C.3     1  UNL1        0.0254
     14 C           6.7507   -2.5737    0.0000 C.3     1  UNL1        0.0181
     15 C           7.8899   -1.9408    0.0000 C.2     1  UNL1       -0.0310
     16 C           9.0290   -2.5737    0.0000 C.2     1  UNL1       -0.0270
     17 C           5.6537   -3.2488    0.0000 C.3     1  UNL1       -0.0003
     18 C          10.1682   -1.9408    0.0000 C.3     1  UNL1        0.0399
     19 C           2.2784   -5.2318    0.0000 C.3     1  UNL1        0.0025
     20 C           1.1392   -5.8647    0.0000 C.3     1  UNL1        0.1519
     21 C          11.3074   -2.6159    0.0000 C.2     1  UNL1       -0.0402
     22 C           1.1392   -8.4384    0.0000 C.3     1  UNL1        0.0005
     23 C          10.1682   -0.6329    0.0000 C.3     1  UNL1        0.0084
     24 C           5.6115   -1.8986    0.0000 C.3     1  UNL1        0.0044
     25 C          11.3074   -3.9238    0.0000 C.2     1  UNL1       -0.0088
     26 C          12.4466   -1.9830    0.0000 C.3     1  UNL1        0.0267
     27 C           0.0000   -6.4975    0.0000 C.3     1  UNL1        0.0329
     28 C          11.3074    0.0000    0.0000 C.3     1  UNL1        0.0007
     29 C           0.0000   -7.8055    0.0000 C.3     1  UNL1        0.0026
     30 H           3.3753   -7.1726    0.0000 H       1  UNL1        0.0358
     31 H           5.6115   -7.1726    0.0000 H       1  UNL1        0.0358
     32 H           7.8899   -3.2066    0.0000 H       1  UNL1        0.0322
     33 O           1.1392   -4.5567    0.0000 O.3     1  UNL1       -0.2232
@<TRIPOS>BOND
     1     1     6    1
     2     1     7    1
     3     1    17    1
     4     1     2    1
     5     2     9    1
     6     2    31    1
     7     2     4    1
     8     3     5    1
     9     3     4    1
    10     3    30    1
    11     3     8    1
    12     4    11    2
    13     5    12    1
    14     5    19    1
    15     5    20    1
    16     6    10    1
    17     6    14    1
    18     6    32    1
    19     7     8    1
    20     9    10    1
    21    11    13    1
    22    12    22    1
    23    12    13    1
    24    14    15    1
    25    14    24    1
    26    15    16    2
    27    18    16    1
    28    18    21    1
    29    18    23    1
    30    20    27    1
    31    20    33    1
    32    21    25    2
    33    21    26    1
    34    22    29    1
    35    23    28    1
    36    27    29    1
