@<TRIPOS>MOLECULE
IMPHY006310
 51 53 0 0 0
SMALL
GASTEIGER

@<TRIPOS>ATOM
      1 O          15.5875    0.2771    0.0000 O.3     1  GLU1       -0.4793
      2 O          12.1196    1.2637    0.0000 O.2     0  UNK0       -0.2702
      3 OXT        14.7273   -1.2262    0.0000 O.2     1  GLU1       -0.2489
      4 OE1        15.5759    3.2771    0.0000 O.3     1  GLU1       -0.4806
      5 OE2        13.8439    3.2704    0.0000 O.2     1  GLU1       -0.2510
      6 O           4.2690   -0.2771    0.0000 O.2     0  UNK0       -0.2633
      7 N          12.9914   -0.2329    0.0000 N.am    1  GLU1       -0.2983
      8 N           8.6671   -1.7496    0.0000 N.pl3   0  UNK0       -0.3382
      9 N           6.0290   -1.2424    0.0000 N.ar    0  UNK0       -0.2400
     10 N           4.2690   -3.2771    0.0000 N.ar    0  UNK0       -0.3109
     11 N           6.0290   -3.3117    0.0000 N.ar    0  UNK0       -0.2339
     12 N           3.4030   -1.7771    0.0000 N.ar    0  UNK0       -0.1756
     13 N           2.5369   -3.2771    0.0000 N.pl3   0  UNK0       -0.3289
     14 CA         13.8555    0.2704    0.0000 C.3     1  GLU1        0.1209
     15 CB         13.8516    1.2704    0.0000 C.3     1  GLU1       -0.0140
     16 CG         14.7157    1.7738    0.0000 C.3     1  GLU1        0.0470
     17 C          12.1234    0.2638    0.0000 C.2     0  UNK0        0.2447
     18 C          11.2593   -0.2396    0.0000 C.ar    0  UNK0        0.0368
     19 C          14.7234   -0.2262    0.0000 C.2     1  GLU1        0.3253
     20 C           9.5312   -1.2462    0.0000 C.ar    0  UNK0        0.0275
     21 C           7.7991   -1.2529    0.0000 C.3     0  UNK0        0.0530
     22 C          10.3914    0.2571    0.0000 C.ar    0  UNK0       -0.0479
     23 C          11.2632   -1.2396    0.0000 C.ar    0  UNK0       -0.0479
     24 C           9.5273   -0.2463    0.0000 C.ar    0  UNK0       -0.0401
     25 C          10.3991   -1.7429    0.0000 C.ar    0  UNK0       -0.0401
     26 C           6.9350   -1.7563    0.0000 C.ar    0  UNK0        0.0773
     27 CD         14.7118    2.7738    0.0000 C.2     1  GLU1        0.3048
     28 C           5.1350   -1.7771    0.0000 C.ar    0  UNK0        0.1725
     29 C           5.1350   -2.7771    0.0000 C.ar    0  UNK0        0.1644
     30 C           6.9350   -2.7979    0.0000 C.ar    0  UNK0        0.0528
     31 C           4.2690   -1.2771    0.0000 C.ar    0  UNK0        0.3021
     32 C           3.4030   -2.7771    0.0000 C.ar    0  UNK0        0.1953
     33 HA         13.8579   -0.3496    0.0000 H       1  GLU1        0.0614
     34 HB1        13.6373    1.8522    0.0000 H       1  GLU1        0.0294
     35 HB2        13.2414    1.1604    0.0000 H       1  GLU1        0.0294
     36 HG1        14.9300    1.1920    0.0000 H       1  GLU1        0.0378
     37 HG2        15.3259    1.8838    0.0000 H       1  GLU1        0.0378
     38 H          12.9938   -0.8529    0.0000 H       1  GLU1        0.1498
     39 H           8.1958   -0.7764    0.0000 H       0  UNK0        0.0527
     40 H           7.3988   -0.7795    0.0000 H       0  UNK0        0.0527
     41 H          10.3890    0.8771    0.0000 H       0  UNK0        0.0626
     42 H          11.8013   -1.5475    0.0000 H       0  UNK0        0.0626
     43 H           8.6694   -2.3696    0.0000 H       0  UNK0        0.1465
     44 H           8.9892    0.0617    0.0000 H       0  UNK0        0.0636
     45 H          10.4015   -2.3629    0.0000 H       0  UNK0        0.0636
     46 H           7.4708   -3.1100    0.0000 H       0  UNK0        0.0849
     47 H          16.1256   -0.0308    0.0000 H       1  GLU1        0.2951
     48 H           4.2690   -3.8971    0.0000 H       0  UNK0        0.1701
     49 HE1        15.5735    3.8971    0.0000 H       1  GLU1        0.2951
     50 H           2.0000   -2.9671    0.0000 H       0  UNK0        0.1451
     51 H           2.5369   -3.8971    0.0000 H       0  UNK0        0.1451
@<TRIPOS>BOND
     1     1    19    1
     2     1    47    1
     3     2    17    2
     4     3    19    2
     5     4    27    1
     6     4    49    1
     7     5    27    2
     8     6    31    2
     9    14     7    1
    10     7    17   am
    11     7    38    1
    12     8    20    1
    13     8    21    1
    14     8    43    1
    15     9    26   ar
    16     9    28   ar
    17    10    29   ar
    18    10    32   ar
    19    10    48    1
    20    11    29   ar
    21    11    30   ar
    22    12    31   ar
    23    12    32   ar
    24    13    32    1
    25    13    50    1
    26    13    51    1
    27    14    15    1
    28    14    19    1
    29    14    33    1
    30    15    16    1
    31    15    34    1
    32    15    35    1
    33    16    27    1
    34    16    36    1
    35    16    37    1
    36    17    18    1
    37    18    22   ar
    38    18    23   ar
    39    20    24   ar
    40    20    25   ar
    41    21    26    1
    42    21    39    1
    43    21    40    1
    44    22    24   ar
    45    22    41    1
    46    23    25   ar
    47    23    42    1
    48    24    44    1
    49    25    45    1
    50    26    30   ar
    51    28    29   ar
    52    28    31   ar
    53    30    46    1
