@<TRIPOS>MOLECULE
IMPHY007042
 30 29 0 0 0
SMALL
GASTEIGER

@<TRIPOS>ATOM
      1 O           5.0981   -1.1651    0.0000 O.3     1  UNL1       -0.3765
      2 O           6.3301   -0.2990    0.0000 O.3     1  UNL1       -0.4659
      3 O           2.8660   -2.2990    0.0000 O.3     1  UNL1       -0.4678
      4 O           2.5981    1.4330    0.0000 O.3     1  UNL1       -0.4678
      5 O           5.4641    1.2010    0.0000 O.2     1  UNL1       -0.2476
      6 O           4.5981   -2.2990    0.0000 O.2     1  UNL1       -0.2507
      7 O           2.5981   -0.2990    0.0000 O.2     1  UNL1       -0.2507
      8 C           4.5981   -0.2990    0.0000 C.3     1  UNL1        0.1821
      9 C           3.7320   -0.7990    0.0000 C.3     1  UNL1        0.0846
     10 C           4.0981    0.5670    0.0000 C.3     1  UNL1        0.0846
     11 C           5.4641    0.2010    0.0000 C.2     1  UNL1        0.3400
     12 C           3.7320   -1.7990    0.0000 C.2     1  UNL1        0.3102
     13 C           3.0981    0.5670    0.0000 C.2     1  UNL1        0.3102
     14 C           7.1962    0.2010    0.0000 C.3     1  UNL1        0.0818
     15 C           2.0000   -1.7990    0.0000 C.3     1  UNL1        0.0817
     16 C           3.0981    2.2990    0.0000 C.3     1  UNL1        0.0817
     17 H           3.5200   -0.2164    0.0000 H       1  UNL1        0.0412
     18 H           3.1215   -0.9067    0.0000 H       1  UNL1        0.0412
     19 H           4.6807    0.7790    0.0000 H       1  UNL1        0.0412
     20 H           3.9904    1.1776    0.0000 H       1  UNL1        0.0412
     21 H           4.7881   -1.7020    0.0000 H       1  UNL1        0.2109
     22 H           7.5062   -0.3360    0.0000 H       1  UNL1        0.0661
     23 H           7.7331    0.5110    0.0000 H       1  UNL1        0.0661
     24 H           6.8862    0.7379    0.0000 H       1  UNL1        0.0661
     25 H           3.6350    1.9890    0.0000 H       1  UNL1        0.0661
     26 H           3.4081    2.8360    0.0000 H       1  UNL1        0.0661
     27 H           2.5611    2.6090    0.0000 H       1  UNL1        0.0661
     28 H           2.3100   -1.2621    0.0000 H       1  UNL1        0.0661
     29 H           1.4631   -1.4890    0.0000 H       1  UNL1        0.0661
     30 H           1.6900   -2.3360    0.0000 H       1  UNL1        0.0661
@<TRIPOS>BOND
     1     1     8    1
     2     1    21    1
     3     2    11    1
     4     2    14    1
     5     3    12    1
     6     3    15    1
     7     4    13    1
     8     4    16    1
     9     5    11    2
    10     6    12    2
    11     7    13    2
    12     8     9    1
    13     8    10    1
    14     8    11    1
    15     9    12    1
    16     9    17    1
    17     9    18    1
    18    10    13    1
    19    10    19    1
    20    10    20    1
    21    14    22    1
    22    14    23    1
    23    14    24    1
    24    15    28    1
    25    15    29    1
    26    15    30    1
    27    16    25    1
    28    16    26    1
    29    16    27    1
