@<TRIPOS>MOLECULE
IMPHY014920
 70 74 0 0 0
SMALL
GASTEIGER

@<TRIPOS>ATOM
      1 O           7.7610    1.5609    0.0000 O.3     1  UNL1       -0.4808
      2 O           9.5312    3.6197    0.0000 O.3     1  UNL1       -0.3875
      3 O           7.7331    0.5955    0.0000 O.3     1  UNL1       -0.3905
      4 O           4.2690    1.5955    0.0000 O.3     1  UNL1       -0.5062
      5 O           6.0010    4.5955    0.0000 O.3     1  UNL1       -0.5063
      6 O           2.5369    0.5955    0.0000 O.3     1  UNL1       -0.5033
      7 O           8.8671   -0.9045    0.0000 O.3     1  UNL1       -0.5063
      8 O           5.8672   -2.6366    0.0000 O.3     1  UNL1       -0.5063
      9 O          12.1311    2.0614    0.0000 O.3     1  UNL1       -0.5033
     10 O           2.5369   -1.4045    0.0000 O.3     1  UNL1       -0.5033
     11 O          12.1234    0.0614    0.0000 O.3     1  UNL1       -0.5033
     12 O           8.8671   -4.3686    0.0000 O.3     1  UNL1       -0.5065
     13 C           6.0010    0.5955    0.0000 C.3     1  UNL1        0.0425
     14 C           6.0010    1.5955    0.0000 C.ar    1  UNL1        0.0460
     15 C           8.6671    3.1163    0.0000 C.3     1  UNL1        0.1004
     16 C           8.6671    2.0747    0.0000 C.3     1  UNL1        0.1513
     17 C           6.8671    2.0955    0.0000 C.ar    1  UNL1        0.1355
     18 C           7.7610    3.6302    0.0000 C.3     1  UNL1        0.0092
     19 C           6.8671    3.0955    0.0000 C.ar    1  UNL1        0.0387
     20 C           6.8671    0.0955    0.0000 C.3     1  UNL1        0.0704
     21 C           5.1350    0.0955    0.0000 C.ar    1  UNL1       -0.0336
     22 C           6.8671   -0.9045    0.0000 C.3     1  UNL1        0.0063
     23 C           5.1350    2.0955    0.0000 C.ar    1  UNL1        0.1276
     24 C           6.0010    3.5955    0.0000 C.ar    1  UNL1        0.1271
     25 C           9.5312    1.5714    0.0000 C.ar    1  UNL1       -0.0012
     26 C           5.1350    3.0955    0.0000 C.ar    1  UNL1        0.0221
     27 C           7.3671   -1.7705    0.0000 C.ar    1  UNL1        0.0381
     28 C           4.2690    0.5955    0.0000 C.ar    1  UNL1       -0.0127
     29 C           5.1350   -0.9045    0.0000 C.ar    1  UNL1       -0.0542
     30 C          10.3991    2.0680    0.0000 C.ar    1  UNL1       -0.0098
     31 C           9.5273    0.5714    0.0000 C.ar    1  UNL1       -0.0513
     32 C           3.4030    0.0955    0.0000 C.ar    1  UNL1        0.1585
     33 C           4.2690   -1.4045    0.0000 C.ar    1  UNL1       -0.0163
     34 C           8.3671   -1.7705    0.0000 C.ar    1  UNL1        0.1270
     35 C           6.8671   -2.6365    0.0000 C.ar    1  UNL1        0.1270
     36 C          11.2632    1.5647    0.0000 C.ar    1  UNL1        0.1586
     37 C           3.4030   -0.9045    0.0000 C.ar    1  UNL1        0.1582
     38 C          10.3914    0.0680    0.0000 C.ar    1  UNL1       -0.0162
     39 C          11.2593    0.5647    0.0000 C.ar    1  UNL1        0.1582
     40 C           8.8671   -2.6365    0.0000 C.ar    1  UNL1        0.0218
     41 C           7.3671   -3.5026    0.0000 C.ar    1  UNL1        0.0218
     42 C           8.3671   -3.5026    0.0000 C.ar    1  UNL1        0.1238
     43 H           6.0010   -0.0245    0.0000 H       1  UNL1        0.0425
     44 H           8.6635    3.7363    0.0000 H       1  UNL1        0.0637
     45 H           8.6635    1.4547    0.0000 H       1  UNL1        0.0811
     46 H           8.1546    4.1092    0.0000 H       1  UNL1        0.0342
     47 H           7.3564    4.1000    0.0000 H       1  UNL1        0.0342
     48 H           7.4040   -0.2145    0.0000 H       1  UNL1        0.0606
     49 H           6.2844   -0.6924    0.0000 H       1  UNL1        0.0341
     50 H           7.4659   -0.7440    0.0000 H       1  UNL1        0.0341
     51 H           4.5981    3.4055    0.0000 H       1  UNL1        0.0691
     52 H           4.2690    1.2155    0.0000 H       1  UNL1        0.0658
     53 H           5.6720   -1.2145    0.0000 H       1  UNL1        0.0622
     54 H           9.5288    4.2397    0.0000 H       1  UNL1        0.2100
     55 H           8.2700    0.2855    0.0000 H       1  UNL1        0.2098
     56 H          10.4015    2.6880    0.0000 H       1  UNL1        0.0659
     57 H           8.9892    0.2634    0.0000 H       1  UNL1        0.0623
     58 H           3.7320    1.9055    0.0000 H       1  UNL1        0.2921
     59 H           4.2690   -2.0245    0.0000 H       1  UNL1        0.0655
     60 H           5.4641    4.9055    0.0000 H       1  UNL1        0.2921
     61 H          10.3890   -0.5520    0.0000 H       1  UNL1        0.0655
     62 H           9.4871   -2.6365    0.0000 H       1  UNL1        0.0691
     63 H           7.0571   -4.0395    0.0000 H       1  UNL1        0.0691
     64 H           2.0000    0.2855    0.0000 H       1  UNL1        0.2923
     65 H           9.4871   -0.9045    0.0000 H       1  UNL1        0.2921
     66 H           5.5572   -3.1735    0.0000 H       1  UNL1        0.2921
     67 H          12.6669    1.7493    0.0000 H       1  UNL1        0.2923
     68 H           2.5369   -2.0245    0.0000 H       1  UNL1        0.2923
     69 H          12.1210   -0.5586    0.0000 H       1  UNL1        0.2923
     70 H           8.5571   -4.9055    0.0000 H       1  UNL1        0.2921
@<TRIPOS>BOND
     1     1    16    1
     2     1    17    1
     3     2    15    1
     4     2    54    1
     5     3    20    1
     6     3    55    1
     7     4    23    1
     8     4    58    1
     9     5    24    1
    10     5    60    1
    11     6    32    1
    12     6    64    1
    13     7    34    1
    14     7    65    1
    15     8    35    1
    16     8    66    1
    17     9    36    1
    18     9    67    1
    19    10    37    1
    20    10    68    1
    21    11    39    1
    22    11    69    1
    23    12    42    1
    24    12    70    1
    25    13    14    1
    26    13    20    1
    27    13    21    1
    28    13    43    1
    29    14    17   ar
    30    14    23   ar
    31    15    16    1
    32    15    18    1
    33    15    44    1
    34    16    25    1
    35    16    45    1
    36    17    19   ar
    37    18    19    1
    38    18    46    1
    39    18    47    1
    40    19    24   ar
    41    20    22    1
    42    20    48    1
    43    21    28   ar
    44    21    29   ar
    45    22    27    1
    46    22    49    1
    47    22    50    1
    48    23    26   ar
    49    24    26   ar
    50    25    30   ar
    51    25    31   ar
    52    26    51    1
    53    27    34   ar
    54    27    35   ar
    55    28    32   ar
    56    28    52    1
    57    29    33   ar
    58    29    53    1
    59    30    36   ar
    60    30    56    1
    61    31    38   ar
    62    31    57    1
    63    32    37   ar
    64    33    37   ar
    65    33    59    1
    66    34    40   ar
    67    35    41   ar
    68    36    39   ar
    69    38    39   ar
    70    38    61    1
    71    40    42   ar
    72    40    62    1
    73    41    42   ar
    74    41    63    1
