@<TRIPOS>MOLECULE
IMPHY017346
 42 42 0 0 0
SMALL
GASTEIGER

@<TRIPOS>ATOM
      1 O           4.5411    0.0194    0.0000 O.3     1  UNL1       -0.4646
      2 O           2.8090    0.0194    0.0000 O.2     1  UNL1       -0.2509
      3 C           2.8090   -2.9806    0.0000 C.3     1  UNL1       -0.0405
      4 C           2.0000   -3.5684    0.0000 C.3     1  UNL1       -0.0502
      5 C           3.6180   -3.5684    0.0000 C.3     1  UNL1       -0.0502
      6 C           2.3090   -4.5194    0.0000 C.3     1  UNL1       -0.0528
      7 C           3.3090   -4.5194    0.0000 C.3     1  UNL1       -0.0528
      8 C           2.8090   -1.9806    0.0000 C.3     1  UNL1       -0.0401
      9 C           3.6750   -1.4806    0.0000 C.3     1  UNL1        0.0452
     10 C           3.6750   -0.4806    0.0000 C.2     1  UNL1        0.3071
     11 C           5.4071    1.5194    0.0000 C.3     1  UNL1       -0.0185
     12 C           5.4071    2.5194    0.0000 C.3     1  UNL1       -0.0500
     13 C           4.5411    1.0194    0.0000 C.3     1  UNL1        0.0925
     14 C           6.2731    3.0194    0.0000 C.3     1  UNL1       -0.0532
     15 C           6.2731    4.0194    0.0000 C.3     1  UNL1       -0.0559
     16 C           7.1391    4.5194    0.0000 C.3     1  UNL1       -0.0653
     17 H           3.3614   -2.6991    0.0000 H       1  UNL1        0.0301
     18 H           1.6900   -3.0314    0.0000 H       1  UNL1        0.0268
     19 H           1.4336   -3.8205    0.0000 H       1  UNL1        0.0268
     20 H           4.1844   -3.8205    0.0000 H       1  UNL1        0.0268
     21 H           3.9280   -3.0314    0.0000 H       1  UNL1        0.0268
     22 H           1.7026   -4.6483    0.0000 H       1  UNL1        0.0265
     23 H           2.3738   -5.1360    0.0000 H       1  UNL1        0.0265
     24 H           3.2442   -5.1360    0.0000 H       1  UNL1        0.0265
     25 H           3.9155   -4.6483    0.0000 H       1  UNL1        0.0265
     26 H           2.5970   -1.3980    0.0000 H       1  UNL1        0.0273
     27 H           2.1984   -2.0882    0.0000 H       1  UNL1        0.0273
     28 H           3.8871   -2.0632    0.0000 H       1  UNL1        0.0378
     29 H           4.2856   -1.3729    0.0000 H       1  UNL1        0.0378
     30 H           5.6192    0.9368    0.0000 H       1  UNL1        0.0298
     31 H           6.0177    1.6271    0.0000 H       1  UNL1        0.0298
     32 H           5.1950    3.1020    0.0000 H       1  UNL1        0.0266
     33 H           4.7965    2.4118    0.0000 H       1  UNL1        0.0266
     34 H           4.3290    1.6020    0.0000 H       1  UNL1        0.0697
     35 H           3.9305    0.9118    0.0000 H       1  UNL1        0.0697
     36 H           6.4852    2.4368    0.0000 H       1  UNL1        0.0265
     37 H           6.8837    3.1271    0.0000 H       1  UNL1        0.0265
     38 H           6.0611    4.6020    0.0000 H       1  UNL1        0.0263
     39 H           5.6625    3.9118    0.0000 H       1  UNL1        0.0263
     40 H           7.4491    3.9825    0.0000 H       1  UNL1        0.0230
     41 H           7.6761    4.8294    0.0000 H       1  UNL1        0.0230
     42 H           6.8291    5.0564    0.0000 H       1  UNL1        0.0230
@<TRIPOS>BOND
     1     1    10    1
     2     1    13    1
     3     2    10    2
     4     3     4    1
     5     3     5    1
     6     3     8    1
     7     3    17    1
     8     4     6    1
     9     4    18    1
    10     4    19    1
    11     5     7    1
    12     5    20    1
    13     5    21    1
    14     6     7    1
    15     6    22    1
    16     6    23    1
    17     7    24    1
    18     7    25    1
    19     8     9    1
    20     8    26    1
    21     8    27    1
    22     9    10    1
    23     9    28    1
    24     9    29    1
    25    11    12    1
    26    11    13    1
    27    11    30    1
    28    11    31    1
    29    12    14    1
    30    12    32    1
    31    12    33    1
    32    13    34    1
    33    13    35    1
    34    14    15    1
    35    14    36    1
    36    14    37    1
    37    15    16    1
    38    15    38    1
    39    15    39    1
    40    16    40    1
    41    16    41    1
    42    16    42    1
