@<TRIPOS>MOLECULE
IMPHY001114
 93 101 0 0 0
SMALL
GASTEIGER

@<TRIPOS>ATOM
      1 O           6.8264   -2.8453    0.0000 O.3     1  UNL1       -0.3384
      2 O           9.2254   -1.4295    0.0000 O.3     1  UNL1       -0.4513
      3 O           9.8083   -2.6574    0.0000 O.3     1  UNL1       -0.4512
      4 O           8.9204   -4.4192    0.0000 O.3     1  UNL1       -0.3829
      5 O           6.9523   -4.5554    0.0000 O.3     1  UNL1       -0.3648
      6 O           5.4251   -0.9776    0.0000 O.3     1  UNL1       -0.4584
      7 O           8.2209    4.3239    0.0000 O.2     1  UNL1       -0.4178
      8 O           7.3390    0.7546    0.0000 O.2     1  UNL1       -0.4178
      9 O          10.7851   -1.2000    0.0000 O.2     1  UNL1       -0.2449
     10 O           9.8960   -4.3872    0.0000 O.2     1  UNL1       -0.2449
     11 O          10.8356    0.8547    0.0000 O.3     1  UNL1       -0.5028
     12 O           3.9627   -0.3888    0.0000 O.2     1  UNL1       -0.2449
     13 O           9.1461   -0.1799    0.0000 O.3     1  UNL1       -0.5009
     14 O           4.7752    4.3536    0.0000 O.3     1  UNL1       -0.5028
     15 O           6.5041    5.3208    0.0000 O.3     1  UNL1       -0.5009
     16 O          11.2127    2.8232    0.0000 O.3     1  UNL1       -0.5028
     17 O           9.9530    4.3239    0.0000 O.2     1  UNL1       -0.2445
     18 O           5.5689    0.7788    0.0000 O.2     1  UNL1       -0.2445
     19 O           4.4905    3.6225    0.0000 O.3     1  UNL1       -0.5028
     20 O          12.9028   -0.1605    0.0000 O.3     1  UNL1       -0.5032
     21 O          12.9068    1.8123    0.0000 O.3     1  UNL1       -0.5009
     22 O           2.6065    3.0371    0.0000 O.3     1  UNL1       -0.5009
     23 O           2.1478    1.1183    0.0000 O.3     1  UNL1       -0.5032
     24 O          13.2599   -1.6152    0.0000 O.3     1  UNL1       -0.5032
     25 O          13.4353   -5.0749    0.0000 O.3     1  UNL1       -0.5032
     26 O          14.3463   -3.2944    0.0000 O.3     1  UNL1       -0.5009
     27 C           8.2804   -1.8790    0.0000 C.3     1  UNL1        0.1718
     28 C           8.8095   -2.7080    0.0000 C.3     1  UNL1        0.1730
     29 C           7.2363   -1.9513    0.0000 C.3     1  UNL1        0.1361
     30 C           8.3669   -3.5863    0.0000 C.3     1  UNL1        0.1460
     31 C           7.3858   -3.6542    0.0000 C.3     1  UNL1        0.1866
     32 C           6.2384   -1.6362    0.0000 C.3     1  UNL1        0.1226
     33 C           9.9402   -0.6651    0.0000 C.2     1  UNL1        0.3405
     34 C           8.2209    2.3239    0.0000 C.ar    1  UNL1        0.0474
     35 C          10.3255    0.3080    0.0000 C.ar    1  UNL1        0.0740
     36 C           7.3549    2.8239    0.0000 C.ar    1  UNL1        0.0474
     37 C          10.3515   -3.4970    0.0000 C.2     1  UNL1        0.3399
     38 C           9.0870    2.8239    0.0000 C.ar    1  UNL1        0.0823
     39 C           9.9464    2.3291    0.0000 C.ar    1  UNL1        0.0464
     40 C          10.3276    1.3545    0.0000 C.ar    1  UNL1        0.0458
     41 C           6.4449    2.3170    0.0000 C.ar    1  UNL1        0.0823
     42 C           5.6056    2.8453    0.0000 C.ar    1  UNL1        0.0464
     43 C           8.2370    1.2824    0.0000 C.ar    1  UNL1        0.1854
     44 C           7.3549    3.8239    0.0000 C.ar    1  UNL1        0.1854
     45 C           4.9095   -0.0669    0.0000 C.2     1  UNL1        0.3401
     46 C           5.0065    1.9872    0.0000 C.ar    1  UNL1        0.0458
     47 C           4.7632    0.9694    0.0000 C.ar    1  UNL1        0.0740
     48 C           9.9598    1.3375    0.0000 C.ar    1  UNL1        0.1708
     49 C           9.1141    0.8196    0.0000 C.ar    1  UNL1        0.2028
     50 C           5.6312    3.8366    0.0000 C.ar    1  UNL1        0.1708
     51 C           9.0870    3.8239    0.0000 C.ar    1  UNL1        0.3460
     52 C           6.4967    4.3208    0.0000 C.ar    1  UNL1        0.2028
     53 C          11.1880   -0.1645    0.0000 C.ar    1  UNL1       -0.0017
     54 C          11.3502   -3.4463    0.0000 C.ar    1  UNL1        0.0661
     55 C          11.1922    1.8234    0.0000 C.ar    1  UNL1        0.1708
     56 C           6.4369    1.2754    0.0000 C.ar    1  UNL1        0.3460
     57 C           4.2760    2.6458    0.0000 C.ar    1  UNL1        0.1708
     58 C          12.0347    0.3359    0.0000 C.ar    1  UNL1        0.1628
     59 C          12.0367    1.3194    0.0000 C.ar    1  UNL1        0.2012
     60 C           3.8138    0.7124    0.0000 C.ar    1  UNL1       -0.0017
     61 C           3.3368    2.3539    0.0000 C.ar    1  UNL1        0.2012
     62 C           3.1081    1.3974    0.0000 C.ar    1  UNL1        0.1628
     63 C          11.8934   -4.2859    0.0000 C.ar    1  UNL1       -0.0023
     64 C          11.8057   -2.5561    0.0000 C.ar    1  UNL1       -0.0023
     65 C          12.8044   -2.5054    0.0000 C.ar    1  UNL1        0.1628
     66 C          12.8921   -4.2353    0.0000 C.ar    1  UNL1        0.1628
     67 C          13.3476   -3.3450    0.0000 C.ar    1  UNL1        0.2006
     68 H           8.0647   -1.0568    0.0000 H       1  UNL1        0.0800
     69 H           9.0936   -2.1570    0.0000 H       1  UNL1        0.0801
     70 H           7.5906   -1.1786    0.0000 H       1  UNL1        0.0670
     71 H           8.9858   -3.5492    0.0000 H       1  UNL1        0.0683
     72 H           7.7337   -4.1674    0.0000 H       1  UNL1        0.0936
     73 H           5.6917   -1.9288    0.0000 H       1  UNL1        0.0725
     74 H           6.5319   -1.0901    0.0000 H       1  UNL1        0.0725
     75 H           8.6448   -4.9745    0.0000 H       1  UNL1        0.2102
     76 H           6.3341   -4.6020    0.0000 H       1  UNL1        0.2126
     77 H          11.1982   -0.7844    0.0000 H       1  UNL1        0.0664
     78 H           3.6586    0.1121    0.0000 H       1  UNL1        0.0664
     79 H          11.6110   -4.8379    0.0000 H       1  UNL1        0.0663
     80 H          11.4689   -2.0356    0.0000 H       1  UNL1        0.0663
     81 H          11.3663    1.1752    0.0000 H       1  UNL1        0.2923
     82 H           8.6193   -0.5069    0.0000 H       1  UNL1        0.2924
     83 H           4.7874    4.9735    0.0000 H       1  UNL1        0.2923
     84 H           7.0433    5.6268    0.0000 H       1  UNL1        0.2924
     85 H          11.7558    3.1221    0.0000 H       1  UNL1        0.2923
     86 H           4.0326    4.0404    0.0000 H       1  UNL1        0.2923
     87 H          12.9053   -0.7805    0.0000 H       1  UNL1        0.2923
     88 H          13.4412    1.4979    0.0000 H       1  UNL1        0.2924
     89 H           2.0133    2.8568    0.0000 H       1  UNL1        0.2924
     90 H           2.0000    0.5162    0.0000 H       1  UNL1        0.2923
     91 H          13.8791   -1.5838    0.0000 H       1  UNL1        0.2923
     92 H          13.1529   -5.6268    0.0000 H       1  UNL1        0.2923
     93 H          14.6831   -3.8150    0.0000 H       1  UNL1        0.2924
@<TRIPOS>BOND
     1     1    29    1
     2     1    31    1
     3     2    27    1
     4     2    33    1
     5    28     3    1
     6     3    37    1
     7    30     4    1
     8     4    75    1
     9     5    31    1
    10     5    76    1
    11     6    32    1
    12     6    45    1
    13     7    44   ar
    14     7    51   ar
    15     8    43   ar
    16     8    56   ar
    17     9    33    2
    18    10    37    2
    19    11    48    1
    20    11    81    1
    21    12    45    2
    22    13    49    1
    23    13    82    1
    24    14    50    1
    25    14    83    1
    26    15    52    1
    27    15    84    1
    28    16    55    1
    29    16    85    1
    30    17    51    2
    31    18    56    2
    32    19    57    1
    33    19    86    1
    34    20    58    1
    35    20    87    1
    36    21    59    1
    37    21    88    1
    38    22    61    1
    39    22    89    1
    40    23    62    1
    41    23    90    1
    42    24    65    1
    43    24    91    1
    44    25    66    1
    45    25    92    1
    46    26    67    1
    47    26    93    1
    48    27    28    1
    49    27    29    1
    50    27    68    1
    51    28    30    1
    52    28    69    1
    53    29    32    1
    54    29    70    1
    55    30    31    1
    56    30    71    1
    57    31    72    1
    58    32    73    1
    59    32    74    1
    60    33    35    1
    61    34    36   ar
    62    34    38   ar
    63    34    43   ar
    64    35    40   ar
    65    35    53   ar
    66    36    41   ar
    67    36    44   ar
    68    37    54    1
    69    38    39   ar
    70    38    51   ar
    71    39    40    1
    72    39    48   ar
    73    40    55   ar
    74    41    42   ar
    75    41    56   ar
    76    42    46    1
    77    42    50   ar
    78    43    49   ar
    79    44    52   ar
    80    45    47    1
    81    46    47   ar
    82    46    57   ar
    83    47    60   ar
    84    48    49   ar
    85    50    52   ar
    86    53    58   ar
    87    53    77    1
    88    54    63   ar
    89    54    64   ar
    90    55    59   ar
    91    57    61   ar
    92    58    59   ar
    93    60    62   ar
    94    60    78    1
    95    61    62   ar
    96    63    66   ar
    97    63    79    1
    98    64    65   ar
    99    64    80    1
   100    65    67   ar
   101    66    67   ar
