@<TRIPOS>MOLECULE
IMPHY004281
 42 43 0 0 0
SMALL
GASTEIGER

@<TRIPOS>ATOM
      1 O           2.6126    2.2754    0.0000 O.3     1  UNL1       -0.3888
      2 C           3.8674    0.7180    0.0000 C.3     1  UNL1       -0.0089
      3 C           5.6261    0.3258    0.0000 C.2     1  UNL1       -0.0668
      4 C           5.6311   -0.6742    0.0000 C.2     1  UNL1       -0.0672
      5 C           4.8412    0.9454    0.0000 C.3     1  UNL1       -0.0258
      6 C           6.5708    0.6352    0.0000 C.3     1  UNL1       -0.0222
      7 C           4.8524   -1.3016    0.0000 C.3     1  UNL1       -0.0225
      8 C           3.4380   -0.1851    0.0000 C.3     1  UNL1       -0.0468
      9 C           3.8764   -1.0839    0.0000 C.3     1  UNL1       -0.0464
     10 C           6.5788   -0.9742    0.0000 C.3     1  UNL1       -0.0307
     11 C           7.1584   -0.1666    0.0000 C.3     1  UNL1       -0.0430
     12 C           3.2400    1.4967    0.0000 C.3     1  UNL1        0.0636
     13 C           6.8767    1.5873    0.0000 C.3     1  UNL1       -0.0587
     14 C           5.0798   -2.2754    0.0000 C.3     1  UNL1       -0.0587
     15 C           2.4613    0.8693    0.0000 C.3     1  UNL1       -0.0361
     16 C           4.0187    2.1241    0.0000 C.3     1  UNL1       -0.0361
     17 H           3.0232    0.6186    0.0000 H       1  UNL1        0.0331
     18 H           5.3240    1.3343    0.0000 H       1  UNL1        0.0314
     19 H           4.5694    1.5026    0.0000 H       1  UNL1        0.0314
     20 H           6.1312    1.0724    0.0000 H       1  UNL1        0.0343
     21 H           4.4162   -1.7422    0.0000 H       1  UNL1        0.0343
     22 H           2.9513    0.1990    0.0000 H       1  UNL1        0.0269
     23 H           2.9552   -0.5741    0.0000 H       1  UNL1        0.0269
     24 H           3.2726   -1.2249    0.0000 H       1  UNL1        0.0271
     25 H           3.8794   -1.7039    0.0000 H       1  UNL1        0.0271
     26 H           6.3306   -1.5424    0.0000 H       1  UNL1        0.0310
     27 H           7.1177   -1.2808    0.0000 H       1  UNL1        0.0310
     28 H           7.6213   -0.5790    0.0000 H       1  UNL1        0.0274
     29 H           7.6172    0.2504    0.0000 H       1  UNL1        0.0274
     30 H           7.4670    1.3976    0.0000 H       1  UNL1        0.0235
     31 H           7.0664    2.1776    0.0000 H       1  UNL1        0.0235
     32 H           6.2864    1.7770    0.0000 H       1  UNL1        0.0235
     33 H           4.4760   -2.4164    0.0000 H       1  UNL1        0.0235
     34 H           5.2207   -2.8792    0.0000 H       1  UNL1        0.0235
     35 H           5.6835   -2.1344    0.0000 H       1  UNL1        0.0235
     36 H           2.0723    1.3521    0.0000 H       1  UNL1        0.0257
     37 H           1.9785    0.4803    0.0000 H       1  UNL1        0.0257
     38 H           2.8502    0.3865    0.0000 H       1  UNL1        0.0257
     39 H           4.4077    1.6413    0.0000 H       1  UNL1        0.0257
     40 H           4.5015    2.5130    0.0000 H       1  UNL1        0.0257
     41 H           3.6297    2.6069    0.0000 H       1  UNL1        0.0257
     42 H           2.0000    2.1799    0.0000 H       1  UNL1        0.2101
@<TRIPOS>BOND
     1     1    12    1
     2     1    42    1
     3     2     5    1
     4     2     8    1
     5     2    12    1
     6     2    17    1
     7     3     4    2
     8     3     5    1
     9     3     6    1
    10     4     7    1
    11     4    10    1
    12     5    18    1
    13     5    19    1
    14     6    11    1
    15     6    13    1
    16     6    20    1
    17     7     9    1
    18     7    14    1
    19     7    21    1
    20     8     9    1
    21     8    22    1
    22     8    23    1
    23     9    24    1
    24     9    25    1
    25    10    11    1
    26    10    26    1
    27    10    27    1
    28    11    28    1
    29    11    29    1
    30    12    15    1
    31    12    16    1
    32    13    30    1
    33    13    31    1
    34    13    32    1
    35    14    33    1
    36    14    34    1
    37    14    35    1
    38    15    36    1
    39    15    37    1
    40    15    38    1
    41    16    39    1
    42    16    40    1
    43    16    41    1
