@<TRIPOS>MOLECULE
IMPHY012635
 35 35 0 0 0
SMALL
GASTEIGER

@<TRIPOS>ATOM
      1 O           2.5123    2.0479    0.0000 O.3     1  UNL1       -0.5032
      2 O           3.9726    3.2124    0.0000 O.2     1  UNL1       -0.2840
      3 C           5.1700    0.2130    0.0000 C.ar    1  UNL1       -0.0360
      4 C           5.7935   -0.5688    0.0000 C.3     1  UNL1       -0.0087
      5 C           5.6039    1.1140    0.0000 C.ar    1  UNL1       -0.0155
      6 C           5.4281   -1.4997    0.0000 C.2     1  UNL1       -0.0810
      7 C           4.1951   -0.0095    0.0000 C.ar    1  UNL1       -0.0541
      8 C           6.6039    1.1140    0.0000 C.2     1  UNL1       -0.0500
      9 C           5.1700    2.0149    0.0000 C.ar    1  UNL1       -0.0036
     10 C           6.0516   -2.2815    0.0000 C.2     1  UNL1       -0.0793
     11 C           3.4132    0.6140    0.0000 C.ar    1  UNL1       -0.0161
     12 C           4.1951    2.2375    0.0000 C.ar    1  UNL1        0.2206
     13 C           3.4132    1.6140    0.0000 C.ar    1  UNL1        0.1636
     14 C           7.1039    1.9800    0.0000 C.3     1  UNL1       -0.0397
     15 C           5.6863   -3.2124    0.0000 C.3     1  UNL1       -0.0440
     16 C           7.0405   -2.1325    0.0000 C.3     1  UNL1       -0.0440
     17 C           7.1039    0.2480    0.0000 C.2     1  UNL1       -0.0952
     18 H           6.3225   -0.8921    0.0000 H       1  UNL1        0.0356
     19 H           6.2037   -0.1040    0.0000 H       1  UNL1        0.0356
     20 H           4.8151   -1.5921    0.0000 H       1  UNL1        0.0575
     21 H           4.0571   -0.6140    0.0000 H       1  UNL1        0.0622
     22 H           5.5566    2.4997    0.0000 H       1  UNL1        0.0663
     23 H           2.8546    0.3450    0.0000 H       1  UNL1        0.0655
     24 H           7.6408    1.6700    0.0000 H       1  UNL1        0.0278
     25 H           7.4139    2.5169    0.0000 H       1  UNL1        0.0278
     26 H           6.5669    2.2900    0.0000 H       1  UNL1        0.0278
     27 H           5.1092   -2.9859    0.0000 H       1  UNL1        0.0274
     28 H           5.4598   -3.7895    0.0000 H       1  UNL1        0.0274
     29 H           6.2634   -3.4389    0.0000 H       1  UNL1        0.0274
     30 H           7.1329   -2.7456    0.0000 H       1  UNL1        0.0274
     31 H           7.6535   -2.0401    0.0000 H       1  UNL1        0.0274
     32 H           6.9481   -1.5194    0.0000 H       1  UNL1        0.0274
     33 H           6.7939   -0.2890    0.0000 H       1  UNL1        0.0538
     34 H           7.7239    0.2480    0.0000 H       1  UNL1        0.0538
     35 H           2.0000    1.6986    0.0000 H       1  UNL1        0.2923
@<TRIPOS>BOND
     1     1    13    1
     2     1    35    1
     3     2    12    2
     4     3     4    1
     5     3     5   ar
     6     3     7   ar
     7     4     6    1
     8     4    18    1
     9     4    19    1
    10     5     8    1
    11     5     9   ar
    12     6    10    2
    13     6    20    1
    14     7    11   ar
    15     7    21    1
    16     8    14    1
    17     8    17    2
    18     9    12   ar
    19     9    22    1
    20    10    15    1
    21    10    16    1
    22    11    13   ar
    23    11    23    1
    24    12    13   ar
    25    14    24    1
    26    14    25    1
    27    14    26    1
    28    15    27    1
    29    15    28    1
    30    15    29    1
    31    16    30    1
    32    16    31    1
    33    16    32    1
    34    17    33    1
    35    17    34    1
