@<TRIPOS>MOLECULE
IMPHY009591
 81 86 0 0 0
SMALL
GASTEIGER

@<TRIPOS>ATOM
      1 O           7.7662    1.7904    0.0000 O.3     1  UNL1       -0.3876
      2 O           4.2983    2.7770    0.0000 O.3     1  UNL1       -0.3911
      3 O           6.0010   -3.4132    0.0000 O.3     1  UNL1       -0.3414
      4 O           3.9166    5.0298    0.0000 O.2     1  UNL1       -0.4303
      5 O           4.2690   -3.4132    0.0000 O.3     1  UNL1       -0.3431
      6 O           3.5529    6.7232    0.0000 O.2     1  UNL1       -0.2452
      7 O           6.0010   -5.4132    0.0000 O.3     1  UNL1       -0.3841
      8 O           4.2690   -6.4132    0.0000 O.3     1  UNL1       -0.3864
      9 O           2.5369   -5.4132    0.0000 O.3     1  UNL1       -0.3866
     10 C           6.8982    2.2870    0.0000 C.3     1  UNL1        0.0774
     11 C           6.0303    2.7837    0.0000 C.3     1  UNL1        0.0297
     12 C           6.9021    1.2870    0.0000 C.3     1  UNL1       -0.0075
     13 C           6.0380    0.7837    0.0000 C.3     1  UNL1       -0.0241
     14 C           6.0260   -0.2579    0.0000 C.3     1  UNL1       -0.0077
     15 C           5.1662    2.2804    0.0000 C.3     1  UNL1        0.0641
     16 C           6.2358    3.7563    0.0000 C.3     1  UNL1       -0.0025
     17 C           5.1701    1.2804    0.0000 C.3     1  UNL1       -0.0223
     18 C           7.6327    2.9570    0.0000 C.3     1  UNL1       -0.0225
     19 C           7.2241    3.8632    0.0000 C.3     1  UNL1       -0.0428
     20 C           7.8140    0.7837    0.0000 C.3     1  UNL1       -0.0436
     21 C           6.9260   -0.7822    0.0000 C.2     1  UNL1       -0.0649
     22 C           5.1624    3.2803    0.0000 C.3     1  UNL1       -0.0540
     23 C           7.8261   -0.2579    0.0000 C.3     1  UNL1       -0.0308
     24 C           5.0761   -0.7822    0.0000 C.3     1  UNL1       -0.0410
     25 C           5.1619    0.2455    0.0000 C.3     1  UNL1       -0.0556
     26 C           5.5650    4.4980    0.0000 C.ar    1  UNL1       -0.0084
     27 C           5.0635   -1.8671    0.0000 C.3     1  UNL1       -0.0221
     28 C           6.9386   -1.8671    0.0000 C.2     1  UNL1       -0.0558
     29 C           6.0010   -2.4132    0.0000 C.3     1  UNL1        0.0802
     30 C           5.8720    5.4497    0.0000 C.ar    1  UNL1       -0.0486
     31 C           4.5873    4.2880    0.0000 C.ar    1  UNL1        0.0994
     32 C           5.2013    6.1914    0.0000 C.ar    1  UNL1        0.0233
     33 C           5.1350   -3.9132    0.0000 C.3     1  UNL1        0.1884
     34 C           4.2236    5.9815    0.0000 C.ar    1  UNL1        0.3367
     35 C           5.1350   -4.9132    0.0000 C.3     1  UNL1        0.1341
     36 C           4.2690   -5.4132    0.0000 C.3     1  UNL1        0.1140
     37 C           3.4030   -3.9132    0.0000 C.3     1  UNL1        0.0873
     38 C           3.4030   -4.9132    0.0000 C.3     1  UNL1        0.1095
     39 C           2.5369   -3.4132    0.0000 C.3     1  UNL1       -0.0361
     40 H           7.6333    1.7205    0.0000 H       1  UNL1        0.0332
     41 H           6.7725    0.3559    0.0000 H       1  UNL1        0.0313
     42 H           5.7263    2.9004    0.0000 H       1  UNL1        0.0600
     43 H           6.4565    4.3357    0.0000 H       1  UNL1        0.0357
     44 H           4.5591    1.3857    0.0000 H       1  UNL1        0.0293
     45 H           4.9602    0.6969    0.0000 H       1  UNL1        0.0293
     46 H           8.0000    2.4575    0.0000 H       1  UNL1        0.0293
     47 H           8.1680    3.2698    0.0000 H       1  UNL1        0.0293
     48 H           7.8129    4.0572    0.0000 H       1  UNL1        0.0272
     49 H           7.0930    4.4692    0.0000 H       1  UNL1        0.0272
     50 H           8.4261    0.6847    0.0000 H       1  UNL1        0.0272
     51 H           8.0163    1.3698    0.0000 H       1  UNL1        0.0272
     52 H           5.4703    3.8185    0.0000 H       1  UNL1        0.0237
     53 H           4.6242    3.5883    0.0000 H       1  UNL1        0.0237
     54 H           4.8544    2.7422    0.0000 H       1  UNL1        0.0237
     55 H           8.0419   -0.8391    0.0000 H       1  UNL1        0.0310
     56 H           8.4357   -0.1447    0.0000 H       1  UNL1        0.0310
     57 H           4.8738   -0.1961    0.0000 H       1  UNL1        0.0275
     58 H           4.4640   -0.8812    0.0000 H       1  UNL1        0.0275
     59 H           8.3019    2.1024    0.0000 H       1  UNL1        0.2102
     60 H           5.4739    0.7812    0.0000 H       1  UNL1        0.0238
     61 H           4.6261    0.5575    0.0000 H       1  UNL1        0.0238
     62 H           4.8498   -0.2903    0.0000 H       1  UNL1        0.0238
     63 H           4.4539   -1.7539    0.0000 H       1  UNL1        0.0294
     64 H           4.8477   -2.4483    0.0000 H       1  UNL1        0.0294
     65 H           7.4779   -2.1729    0.0000 H       1  UNL1        0.0597
     66 H           3.7625    2.4649    0.0000 H       1  UNL1        0.2098
     67 H           6.5386   -2.7222    0.0000 H       1  UNL1        0.0641
     68 H           6.4782    5.5799    0.0000 H       1  UNL1        0.0623
     69 H           4.3970    3.6980    0.0000 H       1  UNL1        0.1033
     70 H           5.3917    6.7815    0.0000 H       1  UNL1        0.0689
     71 H           5.1350   -3.2932    0.0000 H       1  UNL1        0.0938
     72 H           5.1350   -5.5332    0.0000 H       1  UNL1        0.0671
     73 H           3.7320   -5.7232    0.0000 H       1  UNL1        0.0648
     74 H           3.4030   -3.2932    0.0000 H       1  UNL1        0.0621
     75 H           2.8660   -4.6032    0.0000 H       1  UNL1        0.0646
     76 H           6.0010   -6.0332    0.0000 H       1  UNL1        0.2101
     77 H           2.8469   -2.8763    0.0000 H       1  UNL1        0.0255
     78 H           2.0000   -3.1032    0.0000 H       1  UNL1        0.0255
     79 H           2.2269   -3.9501    0.0000 H       1  UNL1        0.0255
     80 H           3.7320   -6.7232    0.0000 H       1  UNL1        0.2100
     81 H           2.0000   -5.1032    0.0000 H       1  UNL1        0.2100
@<TRIPOS>BOND
     1    10     1    1
     2     1    59    1
     3    15     2    1
     4     2    66    1
     5    29     3    1
     6    33     3    1
     7     4    31   ar
     8     4    34   ar
     9     5    33    1
    10     5    37    1
    11     6    34    2
    12    35     7    1
    13     7    76    1
    14    36     8    1
    15     8    80    1
    16    38     9    1
    17     9    81    1
    18    10    11    1
    19    10    12    1
    20    10    18    1
    21    11    15    1
    22    11    16    1
    23    11    22    1
    24    12    13    1
    25    12    20    1
    26    12    40    1
    27    13    14    1
    28    13    17    1
    29    13    41    1
    30    14    21    1
    31    14    24    1
    32    14    25    1
    33    15    17    1
    34    15    42    1
    35    16    19    1
    36    16    26    1
    37    16    43    1
    38    17    44    1
    39    17    45    1
    40    18    19    1
    41    18    46    1
    42    18    47    1
    43    19    48    1
    44    19    49    1
    45    20    23    1
    46    20    50    1
    47    20    51    1
    48    21    23    1
    49    21    28    2
    50    22    52    1
    51    22    53    1
    52    22    54    1
    53    23    55    1
    54    23    56    1
    55    24    27    1
    56    24    57    1
    57    24    58    1
    58    25    60    1
    59    25    61    1
    60    25    62    1
    61    26    30   ar
    62    26    31   ar
    63    27    29    1
    64    27    63    1
    65    27    64    1
    66    28    29    1
    67    28    65    1
    68    29    67    1
    69    30    32   ar
    70    30    68    1
    71    31    69    1
    72    32    34   ar
    73    32    70    1
    74    33    35    1
    75    33    71    1
    76    35    36    1
    77    35    72    1
    78    36    38    1
    79    36    73    1
    80    37    38    1
    81    37    39    1
    82    37    74    1
    83    38    75    1
    84    39    77    1
    85    39    78    1
    86    39    79    1
