@<TRIPOS>MOLECULE
IMPHY016874
 16 15 0 0 0
SMALL
GASTEIGER

@<TRIPOS>ATOM
      1 O           5.4641    0.4400    0.0000 O.3     1  UNL1       -0.4312
      2 O           4.5981   -1.0600    0.0000 O.2     1  UNL1       -0.2452
      3 C           2.8660   -0.0600    0.0000 C.2     1  UNL1       -0.0804
      4 C           3.7320    0.4400    0.0000 C.2     1  UNL1        0.0187
      5 C           2.0000    0.4400    0.0000 C.3     1  UNL1       -0.0463
      6 C           4.5981   -0.0600    0.0000 C.2     1  UNL1        0.3363
      7 C           6.3301   -0.0600    0.0000 C.2     1  UNL1        0.0889
      8 C           7.1962    0.4400    0.0000 C.2     1  UNL1       -0.0635
      9 H           2.8660   -0.6800    0.0000 H       1  UNL1        0.0571
     10 H           3.7320    1.0600    0.0000 H       1  UNL1        0.0686
     11 H           2.3100    0.9769    0.0000 H       1  UNL1        0.0272
     12 H           1.4631    0.7500    0.0000 H       1  UNL1        0.0272
     13 H           1.6900   -0.0969    0.0000 H       1  UNL1        0.0272
     14 H           6.3301   -0.6800    0.0000 H       1  UNL1        0.1024
     15 H           7.7331    0.1300    0.0000 H       1  UNL1        0.0565
     16 H           7.1962    1.0600    0.0000 H       1  UNL1        0.0565
@<TRIPOS>BOND
     1     1     6    1
     2     1     7    1
     3     2     6    2
     4     3     4    2
     5     3     5    1
     6     3     9    1
     7     4     6    1
     8     4    10    1
     9     5    11    1
    10     5    12    1
    11     5    13    1
    12     7     8    2
    13     7    14    1
    14     8    15    1
    15     8    16    1
