@<TRIPOS>MOLECULE
IMPHY017827
 37 40 0 0 0
SMALL
GASTEIGER

@<TRIPOS>ATOM
      1 O           5.5468   -1.5803    0.0000 O.3     1  UNL1       -0.3637
      2 O           6.2392    1.0937    0.0000 O.2     1  UNL1       -0.4672
      3 C           4.6362   -1.0734    0.0000 C.3     1  UNL1        0.1086
      4 C           3.7702   -0.5734    0.0000 C.3     1  UNL1        0.0065
      5 C           4.6523   -2.1149    0.0000 C.3     1  UNL1        0.0894
      6 C           2.8602   -1.0803    0.0000 C.3     1  UNL1       -0.0354
      7 C           5.5022   -0.5734    0.0000 C.3     1  UNL1        0.0379
      8 C           3.7542   -2.6427    0.0000 C.3     1  UNL1       -0.0236
      9 C           3.7702    0.4266    0.0000 C.3     1  UNL1       -0.0158
     10 C           2.8522   -2.1219    0.0000 C.3     1  UNL1       -0.0474
     11 C           2.9042   -0.0734    0.0000 C.3     1  UNL1       -0.0563
     12 C           4.6362    0.9266    0.0000 C.ar    1  UNL1       -0.0029
     13 C           5.5022    0.4266    0.0000 C.ar    1  UNL1        0.1111
     14 C           2.0000   -0.5703    0.0000 C.3     1  UNL1       -0.0618
     15 C           4.8454    1.8984    0.0000 C.ar    1  UNL1       -0.0093
     16 C           5.8341    2.0014    0.0000 C.ar    1  UNL1        0.0952
     17 C           4.1776    2.6427    0.0000 C.3     1  UNL1       -0.0365
     18 H           5.0857   -2.8462    0.0000 H       1  UNL1        0.0625
     19 H           2.3203   -1.3851    0.0000 H       1  UNL1        0.0304
     20 H           5.7143   -1.1560    0.0000 H       1  UNL1        0.0373
     21 H           6.1128   -0.4658    0.0000 H       1  UNL1        0.0373
     22 H           3.3569   -3.1187    0.0000 H       1  UNL1        0.0291
     23 H           4.1552   -3.1156    0.0000 H       1  UNL1        0.0291
     24 H           3.5581    1.0092    0.0000 H       1  UNL1        0.0321
     25 H           3.1596    0.3189    0.0000 H       1  UNL1        0.0321
     26 H           2.2421   -2.0111    0.0000 H       1  UNL1        0.0269
     27 H           2.6386   -2.7039    0.0000 H       1  UNL1        0.0269
     28 H           3.2142    0.4635    0.0000 H       1  UNL1        0.0236
     29 H           2.3672    0.2366    0.0000 H       1  UNL1        0.0236
     30 H           2.5942   -0.6104    0.0000 H       1  UNL1        0.0236
     31 H           2.3162   -0.0370    0.0000 H       1  UNL1        0.0233
     32 H           1.4667   -0.2541    0.0000 H       1  UNL1        0.0233
     33 H           1.6838   -1.1036    0.0000 H       1  UNL1        0.0233
     34 H           6.1441    2.5384    0.0000 H       1  UNL1        0.1032
     35 H           4.6390    3.0568    0.0000 H       1  UNL1        0.0279
     36 H           3.7635    3.1042    0.0000 H       1  UNL1        0.0279
     37 H           3.7161    2.2286    0.0000 H       1  UNL1        0.0279
@<TRIPOS>BOND
     1     3     1    1
     2     1     5    1
     3     2    13   ar
     4     2    16   ar
     5     3     4    1
     6     3     5    1
     7     3     7    1
     8     4     6    1
     9     4     9    1
    10     4    11    1
    11     5     8    1
    12     5    18    1
    13     6    10    1
    14     6    14    1
    15     6    19    1
    16     7    13    1
    17     7    20    1
    18     7    21    1
    19     8    10    1
    20     8    22    1
    21     8    23    1
    22     9    12    1
    23     9    24    1
    24     9    25    1
    25    10    26    1
    26    10    27    1
    27    11    28    1
    28    11    29    1
    29    11    30    1
    30    12    13   ar
    31    12    15   ar
    32    14    31    1
    33    14    32    1
    34    14    33    1
    35    15    16   ar
    36    15    17    1
    37    16    34    1
    38    17    35    1
    39    17    36    1
    40    17    37    1
