@<TRIPOS>MOLECULE
IMPHY006447
 42 44 0 0 0
SMALL
GASTEIGER

@<TRIPOS>ATOM
      1 O           6.3580   -2.1444    0.0000 O.2     1  UNL1       -0.4618
      2 O           2.8660   -0.1098    0.0000 O.3     1  UNL1       -0.4885
      3 O           4.5981    0.8902    0.0000 O.3     1  UNL1       -0.5027
      4 O           6.3465    0.9248    0.0000 O.2     1  UNL1       -0.2863
      5 O          10.7282   -0.5756    0.0000 O.3     1  UNL1       -0.4913
      6 O          10.7205    1.4244    0.0000 O.3     1  UNL1       -0.4885
      7 O           2.8660   -2.1098    0.0000 O.3     1  UNL1       -0.5031
      8 O           8.9846    2.4177    0.0000 O.3     1  UNL1       -0.5032
      9 C           5.4641   -0.6098    0.0000 C.ar    1  UNL1        0.1097
     10 C           7.2641   -0.5890    0.0000 C.ar    1  UNL1        0.0646
     11 C           8.1282   -0.0856    0.0000 C.ar    1  UNL1       -0.0041
     12 C           5.4641   -1.6098    0.0000 C.ar    1  UNL1        0.1456
     13 C           6.3580   -0.0751    0.0000 C.ar    1  UNL1        0.2038
     14 C           4.5981   -0.1098    0.0000 C.ar    1  UNL1        0.1768
     15 C           7.2641   -1.6306    0.0000 C.ar    1  UNL1        0.1038
     16 C           8.9962   -0.5823    0.0000 C.ar    1  UNL1       -0.0081
     17 C           4.5981   -2.1098    0.0000 C.ar    1  UNL1        0.0267
     18 C           3.7320   -0.6098    0.0000 C.ar    1  UNL1        0.2040
     19 C           8.1244    0.9144    0.0000 C.ar    1  UNL1       -0.0084
     20 C           3.7320   -1.6098    0.0000 C.ar    1  UNL1        0.1657
     21 C           9.8602   -0.0789    0.0000 C.ar    1  UNL1        0.1657
     22 C           8.9884    1.4177    0.0000 C.ar    1  UNL1        0.1628
     23 C           9.8564    0.9210    0.0000 C.ar    1  UNL1        0.2033
     24 C           2.0000   -0.6098    0.0000 C.3     1  UNL1        0.0791
     25 C          10.7320   -1.5756    0.0000 C.3     1  UNL1        0.0790
     26 C          11.5884    0.9277    0.0000 C.3     1  UNL1        0.0791
     27 H           7.7998   -1.9426    0.0000 H       1  UNL1        0.1037
     28 H           8.9985   -1.2023    0.0000 H       1  UNL1        0.0661
     29 H           4.5981   -2.7298    0.0000 H       1  UNL1        0.0692
     30 H           7.5862    1.2223    0.0000 H       1  UNL1        0.0661
     31 H           4.0611    1.2002    0.0000 H       1  UNL1        0.2923
     32 H           2.8660   -2.7298    0.0000 H       1  UNL1        0.2923
     33 H           9.5203    2.7298    0.0000 H       1  UNL1        0.2923
     34 H           1.6900   -0.0728    0.0000 H       1  UNL1        0.0660
     35 H           1.4631   -0.9198    0.0000 H       1  UNL1        0.0660
     36 H           2.3100   -1.1467    0.0000 H       1  UNL1        0.0660
     37 H          10.1120   -1.5780    0.0000 H       1  UNL1        0.0660
     38 H          10.7344   -2.1956    0.0000 H       1  UNL1        0.0660
     39 H          11.3520   -1.5732    0.0000 H       1  UNL1        0.0660
     40 H          11.2805    0.3896    0.0000 H       1  UNL1        0.0660
     41 H          12.1266    0.6198    0.0000 H       1  UNL1        0.0660
     42 H          11.8964    1.4659    0.0000 H       1  UNL1        0.0660
@<TRIPOS>BOND
     1     1    12   ar
     2     1    15   ar
     3     2    18    1
     4     2    24    1
     5     3    14    1
     6     3    31    1
     7     4    13    2
     8     5    21    1
     9     5    25    1
    10     6    23    1
    11     6    26    1
    12     7    20    1
    13     7    32    1
    14     8    22    1
    15     8    33    1
    16     9    12   ar
    17     9    13   ar
    18     9    14   ar
    19    10    11    1
    20    10    13   ar
    21    10    15   ar
    22    11    16   ar
    23    11    19   ar
    24    12    17   ar
    25    14    18   ar
    26    15    27    1
    27    16    21   ar
    28    16    28    1
    29    17    20   ar
    30    17    29    1
    31    18    20   ar
    32    19    22   ar
    33    19    30    1
    34    21    23   ar
    35    22    23   ar
    36    24    34    1
    37    24    35    1
    38    24    36    1
    39    25    37    1
    40    25    38    1
    41    25    39    1
    42    26    40    1
    43    26    41    1
    44    26    42    1
