@<TRIPOS>MOLECULE
IMPHY006126
 57 63 0 0 0
SMALL
GASTEIGER

@<TRIPOS>ATOM
      1 O           8.7289    3.1308    0.0000 O.3     1  UNL1       -0.5060
      2 O           7.8830    3.6192    0.0000 O.3     1  UNL1       -0.5060
      3 O          10.5090    0.1833    0.0000 O.3     1  UNL1       -0.5059
      4 O           4.4403    3.6870    0.0000 O.3     1  UNL1       -0.5059
      5 O           9.6640   -1.4112    0.0000 O.2     1  UNL1       -0.2864
      6 O           3.4819    2.1581    0.0000 O.2     1  UNL1       -0.2864
      7 O           8.7703   -3.0169    0.0000 O.3     1  UNL1       -0.5060
      8 O           2.5381    0.5812    0.0000 O.3     1  UNL1       -0.5060
      9 O           5.1440   -4.0029    0.0000 O.3     1  UNL1       -0.3904
     10 C           7.0120    0.1339    0.0000 C.ar    1  UNL1       -0.0001
     11 C           6.1460    0.6339    0.0000 C.ar    1  UNL1       -0.0001
     12 C           7.8781    0.6339    0.0000 C.ar    1  UNL1        0.0090
     13 C           6.1460    1.6339    0.0000 C.ar    1  UNL1        0.0090
     14 C           7.8781    1.6339    0.0000 C.ar    1  UNL1        0.0363
     15 C           7.0120    2.1339    0.0000 C.ar    1  UNL1        0.0363
     16 C           6.9960   -0.9076    0.0000 C.ar    1  UNL1       -0.0020
     17 C           5.2521    0.0993    0.0000 C.ar    1  UNL1       -0.0021
     18 C           8.7881    0.1271    0.0000 C.ar    1  UNL1        0.0723
     19 C           5.2521    2.1686    0.0000 C.ar    1  UNL1        0.0723
     20 C           7.8940   -1.4353    0.0000 C.ar    1  UNL1        0.0715
     21 C           4.3460    0.6131    0.0000 C.ar    1  UNL1        0.0715
     22 C           8.7961   -0.9145    0.0000 C.2     1  UNL1        0.2013
     23 C           4.3460    1.6548    0.0000 C.2     1  UNL1        0.2013
     24 C           8.7363    2.1309    0.0000 C.ar    1  UNL1        0.1288
     25 C           7.0133    3.1256    0.0000 C.ar    1  UNL1        0.1288
     26 C           9.6274    0.6553    0.0000 C.ar    1  UNL1        0.1317
     27 C           5.2899    3.1596    0.0000 C.ar    1  UNL1        0.1317
     28 C           6.0441   -1.4282    0.0000 C.ar    1  UNL1       -0.0477
     29 C           5.2772   -0.9854    0.0000 C.ar    1  UNL1       -0.0502
     30 C           9.6018    1.6467    0.0000 C.ar    1  UNL1        0.0227
     31 C           6.1612    3.6331    0.0000 C.ar    1  UNL1        0.0227
     32 C           7.9024   -2.5203    0.0000 C.ar    1  UNL1        0.1286
     33 C           3.4022    0.0779    0.0000 C.ar    1  UNL1        0.1285
     34 C           6.0273   -2.5130    0.0000 C.ar    1  UNL1       -0.0181
     35 C           4.3460   -1.5423    0.0000 C.ar    1  UNL1       -0.0464
     36 C           6.9628   -3.0628    0.0000 C.ar    1  UNL1       -0.0141
     37 C           3.4022   -1.0071    0.0000 C.ar    1  UNL1       -0.0165
     38 C           5.1556   -3.0030    0.0000 C.3     1  UNL1        0.0694
     39 C           4.3576   -2.5423    0.0000 C.3     1  UNL1       -0.0396
     40 H           5.5132   -1.1079    0.0000 H       1  UNL1        0.0627
     41 H           5.8200   -1.2850    0.0000 H       1  UNL1        0.0626
     42 H          10.1325    1.9672    0.0000 H       1  UNL1        0.0691
     43 H           6.1734    4.2530    0.0000 H       1  UNL1        0.0691
     44 H           6.9604   -3.6828    0.0000 H       1  UNL1        0.0658
     45 H           2.8665   -1.3192    0.0000 H       1  UNL1        0.0657
     46 H           4.9503   -2.4180    0.0000 H       1  UNL1        0.0607
     47 H           4.5438   -3.1036    0.0000 H       1  UNL1        0.0607
     48 H           9.2635    3.4448    0.0000 H       1  UNL1        0.2922
     49 H           7.8876    4.2392    0.0000 H       1  UNL1        0.2922
     50 H           3.7376   -2.5494    0.0000 H       1  UNL1        0.0278
     51 H           4.3647   -3.1622    0.0000 H       1  UNL1        0.0278
     52 H           4.9775   -2.5351    0.0000 H       1  UNL1        0.0278
     53 H          11.0357    0.5103    0.0000 H       1  UNL1        0.2922
     54 H           4.4601    4.3067    0.0000 H       1  UNL1        0.2922
     55 H           8.7727   -3.6369    0.0000 H       1  UNL1        0.2922
     56 H           2.0000    0.2733    0.0000 H       1  UNL1        0.2922
     57 H           4.6035   -4.3067    0.0000 H       1  UNL1        0.2098
@<TRIPOS>BOND
     1     1    24    1
     2     1    48    1
     3     2    25    1
     4     2    49    1
     5     3    26    1
     6     3    53    1
     7     4    27    1
     8     4    54    1
     9     5    22    2
    10     6    23    2
    11     7    32    1
    12     7    55    1
    13     8    33    1
    14     8    56    1
    15     9    38    1
    16     9    57    1
    17    10    11   ar
    18    10    12   ar
    19    10    16    1
    20    11    13   ar
    21    11    17    1
    22    12    14   ar
    23    12    18   ar
    24    13    15   ar
    25    13    19   ar
    26    14    15   ar
    27    14    24   ar
    28    15    25   ar
    29    16    20   ar
    30    16    28   ar
    31    17    21   ar
    32    17    29   ar
    33    18    22    1
    34    18    26   ar
    35    19    23    1
    36    19    27   ar
    37    20    22    1
    38    20    32   ar
    39    21    23    1
    40    21    33   ar
    41    24    30   ar
    42    25    31   ar
    43    26    30   ar
    44    27    31   ar
    45    28    34   ar
    46    28    40    1
    47    29    35   ar
    48    29    41    1
    49    30    42    1
    50    31    43    1
    51    32    36   ar
    52    33    37   ar
    53    34    36   ar
    54    34    38    1
    55    35    37   ar
    56    35    39    1
    57    36    44    1
    58    37    45    1
    59    38    46    1
    60    38    47    1
    61    39    50    1
    62    39    51    1
    63    39    52    1
