@<TRIPOS>MOLECULE
IMPHY002720
 17 17 0 0 0
SMALL
GASTEIGER

@<TRIPOS>ATOM
      1 O           3.7601   -0.4197    0.0000 O.2     1  UNL1       -0.4571
      2 O           5.7281   -1.1191    0.0000 O.2     1  UNL1       -0.2891
      3 C           4.5691    0.1681    0.0000 C.ar    1  UNL1        0.1699
      4 C           2.9511    0.1681    0.0000 C.ar    1  UNL1        0.1028
      5 C           4.2601    1.1191    0.0000 C.ar    1  UNL1       -0.0127
      6 C           3.2601    1.1191    0.0000 C.ar    1  UNL1       -0.0203
      7 C           5.5202   -0.1410    0.0000 C.2     1  UNL1        0.1949
      8 C           2.0000   -0.1410    0.0000 C.3     1  UNL1       -0.0063
      9 C           6.2633    0.5282    0.0000 C.3     1  UNL1        0.0017
     10 H           4.6245    1.6207    0.0000 H       1  UNL1        0.0656
     11 H           2.8956    1.6207    0.0000 H       1  UNL1        0.0652
     12 H           1.8084    0.4487    0.0000 H       1  UNL1        0.0308
     13 H           1.4103   -0.3326    0.0000 H       1  UNL1        0.0308
     14 H           2.1916   -0.7306    0.0000 H       1  UNL1        0.0308
     15 H           6.6782    0.0674    0.0000 H       1  UNL1        0.0310
     16 H           6.7240    0.9430    0.0000 H       1  UNL1        0.0310
     17 H           5.8484    0.9889    0.0000 H       1  UNL1        0.0310
@<TRIPOS>BOND
     1     1     3   ar
     2     1     4   ar
     3     2     7    2
     4     3     5   ar
     5     3     7    1
     6     4     6   ar
     7     4     8    1
     8     5     6   ar
     9     5    10    1
    10     6    11    1
    11     7     9    1
    12     8    12    1
    13     8    13    1
    14     8    14    1
    15     9    15    1
    16     9    16    1
    17     9    17    1
