@<TRIPOS>MOLECULE
IMPHY008984
 32 35 0 0 0
SMALL
GASTEIGER

@<TRIPOS>ATOM
      1 O          12.4583    1.1060    0.0000 O.3     1  UNL1       -0.3157
      2 O          10.7263    1.0994    0.0000 O.3     1  UNL1       -0.4503
      3 O          12.4699   -1.8939    0.0000 O.3     1  UNL1       -0.2173
      4 O          14.1981   -0.8873    0.0000 O.3     1  UNL1       -0.2176
      5 O          10.7340   -0.9006    0.0000 O.3     1  UNL1       -0.2135
      6 O          14.1865    2.1127    0.0000 O.3     1  UNL1       -0.2176
      7 O           7.1962    1.0752    0.0000 O.3     1  UNL1       -0.4743
      8 O           8.9446   -1.9594    0.0000 O.3     1  UNL1       -0.2863
      9 O           7.1962   -1.9248    0.0000 O.2     1  UNL1       -0.2907
     10 O           2.8660   -2.4248    0.0000 O.3     1  UNL1       -0.4714
     11 C          12.4660   -0.8939    0.0000 C.3     1  UNL1        0.2211
     12 C          13.3301   -0.3906    0.0000 C.3     1  UNL1        0.2145
     13 C          11.5981   -0.3973    0.0000 C.3     1  UNL1        0.2542
     14 C          13.3263    0.6094    0.0000 C.3     1  UNL1        0.1846
     15 C          11.5942    0.6027    0.0000 C.3     1  UNL1        0.3218
     16 C          14.1904    1.1127    0.0000 C.3     1  UNL1        0.2142
     17 C           9.8622    0.5960    0.0000 C.ar    1  UNL1        0.1476
     18 C           6.3301   -0.4248    0.0000 C.3     1  UNL1        0.1279
     19 C           8.0622   -0.4248    0.0000 C.ar    1  UNL1        0.1081
     20 C           8.0622    0.5752    0.0000 C.ar    1  UNL1        0.1474
     21 C           6.3301    0.5752    0.0000 C.3     1  UNL1        0.2174
     22 C           7.1962   -0.9248    0.0000 C.2     1  UNL1        0.1864
     23 C           8.9561    1.1099    0.0000 C.ar    1  UNL1        0.0741
     24 C           9.8622   -0.4456    0.0000 C.ar    1  UNL1        0.0793
     25 C           8.9561   -0.9594    0.0000 C.ar    1  UNL1        0.2044
     26 C           5.4641   -0.9248    0.0000 C.ar    1  UNL1       -0.0114
     27 C           5.4641   -1.9248    0.0000 C.ar    1  UNL1       -0.0006
     28 C           4.5981   -0.4248    0.0000 C.ar    1  UNL1       -0.0006
     29 C           4.5981   -2.4248    0.0000 C.ar    1  UNL1        0.0366
     30 C           3.7321   -0.9248    0.0000 C.ar    1  UNL1        0.0366
     31 C           3.7321   -1.9248    0.0000 C.ar    1  UNL1        0.1387
     32 C           2.0000   -1.9248    0.0000 C.3     1  UNL1        0.2525
@<TRIPOS>BOND
     1     1    14    1
     2     1    15    1
     3     2    17    1
     4     6    16    1
     5     7    20    1
     6     7    21    1
     7     8    25    1
     8     9    22    2
     9    10    31    1
    10    10    32    1
    11    11     3    1
    12    11    12    1
    13    11    13    1
    14    12     4    1
    15    12    14    1
    16    13     5    1
    17    13    15    1
    18    14    16    1
    19    15     2    1
    20    17    23   ar
    21    17    24   ar
    22    18    21    1
    23    18    22    1
    24    18    26    1
    25    19    20   ar
    26    19    22    1
    27    19    25   ar
    28    20    23   ar
    29    24    25   ar
    30    26    27   ar
    31    26    28   ar
    32    27    29   ar
    33    28    30   ar
    34    29    31   ar
    35    30    31   ar
