@<TRIPOS>MOLECULE
IMPHY013501
 104 113 0 0 0
SMALL
GASTEIGER

@<TRIPOS>ATOM
      1 O           1.0445    9.7910    0.0000 O.3     1  UNL1       -0.4520
      2 O           9.3425    4.9661    0.0000 O.3     2  UNL2       -0.4520
      3 O           1.0445   11.4004    0.0000 O.3     1  UNL1       -0.4526
      4 O           9.3425    6.5756    0.0000 O.3     2  UNL2       -0.4526
      5 O           9.3425   14.6158    0.0000 O.3     3  UNL3       -0.4520
      6 O           9.3425   16.2253    0.0000 O.3     3  UNL3       -0.4526
      7 O           4.6150    6.4448    0.0000 O.3     1  UNL1       -0.4945
      8 O          12.9130    1.6200    0.0000 O.3     2  UNL2       -0.4945
      9 O           3.4220   12.8014    0.0000 O.3     1  UNL1       -0.4771
     10 O          11.7200    7.9766    0.0000 O.3     2  UNL2       -0.4771
     11 O          11.7200   17.6263    0.0000 O.3     3  UNL3       -0.4771
     12 O           5.0496   12.2090    0.0000 O.2     1  UNL1       -0.2451
     13 O          13.3476    7.3842    0.0000 O.2     2  UNL2       -0.2451
     14 O           5.9724    8.4909    0.0000 O.co2   1  UNL1       -0.5760
     15 O          14.2703    3.6661    0.0000 O.co2   2  UNL2       -0.5760
     16 O           6.2534   10.2000    0.0000 O.2     1  UNL1        0.0415
     17 O          14.5514    5.3752    0.0000 O.2     2  UNL2        0.0415
     18 O          13.3476   17.0339    0.0000 O.2     3  UNL3       -0.2451
     19 O          14.2703   13.3158    0.0000 O.co2   3  UNL3       -0.5760
     20 O          14.5514   15.0249    0.0000 O.2     3  UNL3        0.0415
     21 N           5.6195    9.4266    0.0000 N.pl3   1  UNL1        0.0803
     22 N          13.9175    4.6018    0.0000 N.pl3   2  UNL2        0.0803
     23 N          13.9175   14.2514    0.0000 N.pl3   3  UNL3        0.0803
     24 C           2.8567    9.5957    0.0000 C.ar    1  UNL1        0.0427
     25 C          11.1547    4.7709    0.0000 C.ar    2  UNL2        0.0427
     26 C           3.7228   10.0957    0.0000 C.ar    1  UNL1        0.0775
     27 C          12.0207    5.2709    0.0000 C.ar    2  UNL2        0.0775
     28 C           2.8407    8.5542    0.0000 C.ar    1  UNL1       -0.0026
     29 C          11.1386    3.7294    0.0000 C.ar    2  UNL2       -0.0026
     30 C          11.1547   14.4205    0.0000 C.ar    3  UNL3        0.0426
     31 C           1.9907   10.0957    0.0000 C.ar    1  UNL1        0.1747
     32 C          10.2887    5.2709    0.0000 C.ar    2  UNL2        0.1747
     33 C           3.7387    8.0264    0.0000 C.ar    1  UNL1        0.0309
     34 C          12.0367    3.2016    0.0000 C.ar    2  UNL2        0.0309
     35 C          12.0207   14.9205    0.0000 C.ar    3  UNL3        0.0775
     36 C          11.1386   13.3790    0.0000 C.ar    3  UNL3       -0.0061
     37 C           4.6328    9.5889    0.0000 C.ar    1  UNL1        0.2824
     38 C          12.9307    4.7640    0.0000 C.ar    2  UNL2        0.2824
     39 C           3.7228   11.0957    0.0000 C.ar    1  UNL1        0.0767
     40 C          12.0207    6.2709    0.0000 C.ar    2  UNL2        0.0767
     41 C           1.9907   11.0957    0.0000 C.ar    1  UNL1        0.1677
     42 C          10.2887    6.2709    0.0000 C.ar    2  UNL2        0.1677
     43 C          10.2887   14.9205    0.0000 C.ar    3  UNL3        0.1747
     44 C           4.6408    8.5472    0.0000 C.ar    1  UNL1        0.0275
     45 C          12.9388    3.7224    0.0000 C.ar    2  UNL2        0.0275
     46 C          12.0367   12.8513    0.0000 C.ar    3  UNL3       -0.0108
     47 C          12.9307   14.4137    0.0000 C.ar    3  UNL3        0.2823
     48 C          12.0207   15.9205    0.0000 C.ar    3  UNL3        0.0767
     49 C           2.8567   11.5957    0.0000 C.ar    1  UNL1       -0.0013
     50 C          11.1547    6.7709    0.0000 C.ar    2  UNL2       -0.0013
     51 C          10.2887   15.9205    0.0000 C.ar    3  UNL3        0.1677
     52 C           1.8887    8.0336    0.0000 C.ar    1  UNL1       -0.0531
     53 C          10.1867    3.2087    0.0000 C.ar    2  UNL2       -0.0531
     54 C           3.7471    6.9415    0.0000 C.ar    1  UNL1        0.1280
     55 C          12.0450    2.1166    0.0000 C.ar    2  UNL2        0.1280
     56 C          12.9388   13.3721    0.0000 C.ar    3  UNL3        0.0240
     57 C          11.1547   16.4205    0.0000 C.ar    3  UNL3       -0.0013
     58 C           0.4609   10.5957    0.0000 C.3     1  UNL1        0.2333
     59 C           8.7588    5.7709    0.0000 C.3     2  UNL2        0.2333
     60 C          10.1867   12.8584    0.0000 C.ar    3  UNL3       -0.0533
     61 C           1.8720    6.9487    0.0000 C.ar    1  UNL1       -0.0577
     62 C          10.1700    2.1239    0.0000 C.ar    2  UNL2       -0.0577
     63 C           2.8074    6.3990    0.0000 C.ar    1  UNL1       -0.0193
     64 C          11.1054    1.5742    0.0000 C.ar    2  UNL2       -0.0193
     65 C          12.0450   11.7663    0.0000 C.ar    3  UNL3       -0.0538
     66 C           8.7588   15.4205    0.0000 C.3     3  UNL3        0.2333
     67 C           4.0648   12.0354    0.0000 C.2     1  UNL1        0.3377
     68 C          12.3628    7.2106    0.0000 C.2     2  UNL2        0.3377
     69 C          10.1700   11.7735    0.0000 C.ar    3  UNL3       -0.0611
     70 C          11.1054   11.2238    0.0000 C.ar    3  UNL3       -0.0612
     71 C          12.3627   16.8602    0.0000 C.2     3  UNL3        0.3377
     72 C           4.6189    5.4448    0.0000 C.3     1  UNL1        0.0788
     73 C          12.9168    0.6200    0.0000 C.3     2  UNL2        0.0788
     74 H           5.1789    8.2393    0.0000 H       1  UNL1        0.0693
     75 H          13.4769    3.4145    0.0000 H       2  UNL2        0.0693
     76 H           2.8567   12.2157    0.0000 H       1  UNL1        0.0664
     77 H          11.1547    7.3909    0.0000 H       2  UNL2        0.0664
     78 H           1.3579    8.3539    0.0000 H       1  UNL1        0.0624
     79 H           9.6559    3.5290    0.0000 H       2  UNL2        0.0624
     80 H          13.4769   13.0642    0.0000 H       3  UNL3        0.0692
     81 H          11.1547   17.0405    0.0000 H       3  UNL3        0.0664
     82 H           0.0000   11.0104    0.0000 H       1  UNL1        0.1166
     83 H           0.0000   10.1810    0.0000 H       1  UNL1        0.1166
     84 H           8.2980    6.1856    0.0000 H       2  UNL2        0.1166
     85 H           8.2980    5.3561    0.0000 H       2  UNL2        0.1166
     86 H           9.6559   13.1787    0.0000 H       3  UNL3        0.0624
     87 H           1.3315    6.6449    0.0000 H       1  UNL1        0.0619
     88 H           9.6295    1.8201    0.0000 H       2  UNL2        0.0619
     89 H           2.8050    5.7790    0.0000 H       1  UNL1        0.0654
     90 H          11.1030    0.9542    0.0000 H       2  UNL2        0.0654
     91 H          12.5832   11.4584    0.0000 H       3  UNL3        0.0624
     92 H           8.2980   15.8353    0.0000 H       3  UNL3        0.1166
     93 H           8.2980   15.0058    0.0000 H       3  UNL3        0.1166
     94 H           9.6295   11.4698    0.0000 H       3  UNL3        0.0618
     95 H          11.1030   10.6038    0.0000 H       3  UNL3        0.0618
     96 H           3.9989    5.4424    0.0000 H       1  UNL1        0.0660
     97 H           4.6213    4.8248    0.0000 H       1  UNL1        0.0660
     98 H           5.2389    5.4472    0.0000 H       1  UNL1        0.0660
     99 H          12.2969    0.6176    0.0000 H       2  UNL2        0.0660
    100 H          12.9192    0.0000    0.0000 H       2  UNL2        0.0660
    101 H          13.5368    0.6224    0.0000 H       2  UNL2        0.0660
    102 H           3.6340   13.3840    0.0000 H       1  UNL1        0.2954
    103 H          11.9320    8.5592    0.0000 H       2  UNL2        0.2954
    104 H          11.9320   18.2089    0.0000 H       3  UNL3        0.2954
@<TRIPOS>UNITY_ATOM_ATTR
14 1
charge -1
15 1
charge -1
19 1
charge -1
21 1
charge 1
22 1
charge 1
23 1
charge 1
@<TRIPOS>BOND
     1     1    31    1
     2     1    58    1
     3     2    32    1
     4     2    59    1
     5     3    41    1
     6     3    58    1
     7     4    42    1
     8     4    59    1
     9     5    43    1
    10     5    66    1
    11     6    51    1
    12     6    66    1
    13     7    54    1
    14     7    72    1
    15     8    55    1
    16     8    73    1
    17     9    67    1
    18     9   102    1
    19    10    68    1
    20    10   103    1
    21    11    71    1
    22    11   104    1
    23    12    67    2
    24    13    68    2
    25    14    21    1
    26    15    22    1
    27    16    21    2
    28    17    22    2
    29    18    71    2
    30    19    23    1
    31    20    23    2
    32    21    37    1
    33    22    38    1
    34    23    47    1
    35    24    26   ar
    36    24    28   ar
    37    24    31   ar
    38    25    27   ar
    39    25    29   ar
    40    25    32   ar
    41    26    37   ar
    42    26    39   ar
    43    27    38   ar
    44    27    40   ar
    45    28    33   ar
    46    28    52   ar
    47    29    34   ar
    48    29    53   ar
    49    30    35   ar
    50    30    36   ar
    51    30    43   ar
    52    31    41   ar
    53    32    42   ar
    54    33    44   ar
    55    33    54   ar
    56    34    45   ar
    57    34    55   ar
    58    35    47   ar
    59    35    48   ar
    60    36    46   ar
    61    36    60   ar
    62    37    44   ar
    63    38    45   ar
    64    39    49   ar
    65    39    67    1
    66    40    50   ar
    67    40    68    1
    68    41    49   ar
    69    42    50   ar
    70    43    51   ar
    71    44    74    1
    72    45    75    1
    73    46    56   ar
    74    46    65   ar
    75    47    56   ar
    76    48    57   ar
    77    48    71    1
    78    49    76    1
    79    50    77    1
    80    51    57   ar
    81    52    61   ar
    82    52    78    1
    83    53    62   ar
    84    53    79    1
    85    54    63   ar
    86    55    64   ar
    87    56    80    1
    88    57    81    1
    89    58    82    1
    90    58    83    1
    91    59    84    1
    92    59    85    1
    93    60    69   ar
    94    60    86    1
    95    61    63   ar
    96    61    87    1
    97    62    64   ar
    98    62    88    1
    99    63    89    1
   100    64    90    1
   101    65    70   ar
   102    65    91    1
   103    66    92    1
   104    66    93    1
   105    69    70   ar
   106    69    94    1
   107    70    95    1
   108    72    96    1
   109    72    97    1
   110    72    98    1
   111    73    99    1
   112    73   100    1
   113    73   101    1
