@<TRIPOS>MOLECULE
IMPHY002744
 68 72 0 0 0
SMALL
GASTEIGER

@<TRIPOS>ATOM
      1 O           8.5991   -1.0000    0.0000 O.3     1  UNL1       -0.3609
      2 O           6.0010   -0.5000    0.0000 O.3     1  UNL1       -0.3399
      3 O           6.0010   -2.5000    0.0000 O.3     1  UNL1       -0.3865
      4 O           5.1350   -2.0000    0.0000 O.3     1  UNL1       -0.3461
      5 O           7.7331   -3.5000    0.0000 O.3     1  UNL1       -0.3865
      6 O           4.2690    0.5000    0.0000 O.3     1  UNL1       -0.3841
      7 O           2.5369   -0.5000    0.0000 O.3     1  UNL1       -0.3864
      8 O           9.4651   -3.5000    0.0000 O.3     1  UNL1       -0.3924
      9 O           2.5369   -2.5000    0.0000 O.3     1  UNL1       -0.3869
     10 O           9.4931    0.4653    0.0000 O.2     1  UNL1       -0.4540
     11 O           6.0010    0.5000    0.0000 O.3     1  UNL1       -0.5062
     12 O           7.7331    3.5000    0.0000 O.3     1  UNL1       -0.5058
     13 O           9.4815    3.5346    0.0000 O.2     1  UNL1       -0.2869
     14 O          13.8555   -1.0341    0.0000 O.3     1  UNL1       -0.5068
     15 C           6.8671   -1.0000    0.0000 C.3     1  UNL1        0.1204
     16 C           6.8671   -2.0000    0.0000 C.3     1  UNL1        0.1124
     17 C           7.7331   -0.5000    0.0000 C.3     1  UNL1        0.1197
     18 C           7.7331   -2.5000    0.0000 C.3     1  UNL1        0.1118
     19 C           8.5991   -2.0000    0.0000 C.3     1  UNL1        0.1108
     20 C           5.1350   -1.0000    0.0000 C.3     1  UNL1        0.1880
     21 C           7.7331    0.5000    0.0000 C.ar    1  UNL1        0.0682
     22 C           4.2690   -0.5000    0.0000 C.3     1  UNL1        0.1341
     23 C           3.4030   -1.0000    0.0000 C.3     1  UNL1        0.1137
     24 C           9.4651   -2.5000    0.0000 C.3     1  UNL1        0.0729
     25 C           3.4030   -2.0000    0.0000 C.3     1  UNL1        0.1069
     26 C           4.2690   -2.5000    0.0000 C.3     1  UNL1        0.0792
     27 C           8.5991    1.0000    0.0000 C.ar    1  UNL1        0.1520
     28 C           6.8671    1.0000    0.0000 C.ar    1  UNL1        0.1296
     29 C           8.5991    2.0000    0.0000 C.ar    1  UNL1        0.1058
     30 C           6.8671    2.0000    0.0000 C.ar    1  UNL1        0.0226
     31 C           7.7331    2.5000    0.0000 C.ar    1  UNL1        0.1347
     32 C           9.4931    2.5347    0.0000 C.ar    1  UNL1        0.1966
     33 C          10.3991    0.9792    0.0000 C.ar    1  UNL1        0.1392
     34 C          10.3991    2.0208    0.0000 C.ar    1  UNL1        0.0288
     35 C          11.2632    0.4758    0.0000 C.ar    1  UNL1        0.0176
     36 C          11.2594   -0.5241    0.0000 C.ar    1  UNL1       -0.0476
     37 C          12.1312    0.9725    0.0000 C.ar    1  UNL1       -0.0476
     38 C          12.1235   -1.0275    0.0000 C.ar    1  UNL1       -0.0195
     39 C          12.9953    0.4692    0.0000 C.ar    1  UNL1       -0.0195
     40 C          12.9914   -0.5308    0.0000 C.ar    1  UNL1        0.1169
     41 H           6.3301   -1.3100    0.0000 H       1  UNL1        0.0653
     42 H           7.8148   -2.3100    0.0000 H       1  UNL1        0.0647
     43 H           8.4692   -0.0750    0.0000 H       1  UNL1        0.0676
     44 H           8.2700   -2.8100    0.0000 H       1  UNL1        0.0647
     45 H           9.1360   -1.6900    0.0000 H       1  UNL1        0.0646
     46 H           5.1350   -0.3800    0.0000 H       1  UNL1        0.0937
     47 H           3.7320   -0.1900    0.0000 H       1  UNL1        0.0671
     48 H           3.9650   -0.3800    0.0000 H       1  UNL1        0.0647
     49 H          10.0757   -2.6077    0.0000 H       1  UNL1        0.0584
     50 H           9.6772   -1.9174    0.0000 H       1  UNL1        0.0584
     51 H           3.4030   -2.6200    0.0000 H       1  UNL1        0.0643
     52 H           3.8705   -2.9750    0.0000 H       1  UNL1        0.0587
     53 H           4.6675   -2.9750    0.0000 H       1  UNL1        0.0587
     54 H           6.0010   -3.1200    0.0000 H       1  UNL1        0.2100
     55 H           7.1962   -3.8100    0.0000 H       1  UNL1        0.2100
     56 H           3.7320    0.8100    0.0000 H       1  UNL1        0.2101
     57 H           6.3301    2.3100    0.0000 H       1  UNL1        0.0691
     58 H           2.0000   -0.8100    0.0000 H       1  UNL1        0.2100
     59 H          10.0021   -3.8100    0.0000 H       1  UNL1        0.2095
     60 H           2.5369   -3.1200    0.0000 H       1  UNL1        0.2100
     61 H           5.4641    0.8100    0.0000 H       1  UNL1        0.2922
     62 H          10.9349    2.3329    0.0000 H       1  UNL1        0.0693
     63 H           7.1962    3.8100    0.0000 H       1  UNL1        0.2922
     64 H          10.7212   -0.8321    0.0000 H       1  UNL1        0.0626
     65 H          12.1336    1.5925    0.0000 H       1  UNL1        0.0626
     66 H          12.1211   -1.6475    0.0000 H       1  UNL1        0.0654
     67 H          13.5334    0.7771    0.0000 H       1  UNL1        0.0654
     68 H          14.3936   -0.7262    0.0000 H       1  UNL1        0.2921
@<TRIPOS>BOND
     1     1    17    1
     2     1    19    1
     3    15     2    1
     4    20     2    1
     5    16     3    1
     6     3    54    1
     7     4    20    1
     8     4    26    1
     9    18     5    1
    10     5    55    1
    11    22     6    1
    12     6    56    1
    13    23     7    1
    14     7    58    1
    15     8    24    1
    16     8    59    1
    17    25     9    1
    18     9    60    1
    19    10    27   ar
    20    10    33   ar
    21    11    28    1
    22    11    61    1
    23    12    31    1
    24    12    63    1
    25    13    32    2
    26    14    40    1
    27    14    68    1
    28    15    16    1
    29    15    17    1
    30    15    41    1
    31    16    18    1
    32    16    42    1
    33    17    21    1
    34    17    43    1
    35    18    19    1
    36    18    44    1
    37    19    24    1
    38    19    45    1
    39    20    22    1
    40    20    46    1
    41    21    27   ar
    42    21    28   ar
    43    22    23    1
    44    22    47    1
    45    23    25    1
    46    23    48    1
    47    24    49    1
    48    24    50    1
    49    25    26    1
    50    25    51    1
    51    26    52    1
    52    26    53    1
    53    27    29   ar
    54    28    30   ar
    55    29    31   ar
    56    29    32   ar
    57    30    31   ar
    58    30    57    1
    59    32    34   ar
    60    33    34   ar
    61    33    35    1
    62    34    62    1
    63    35    36   ar
    64    35    37   ar
    65    36    38   ar
    66    36    64    1
    67    37    39   ar
    68    37    65    1
    69    38    40   ar
    70    38    66    1
    71    39    40   ar
    72    39    67    1
