@<TRIPOS>MOLECULE
IMPHY006237
 46 48 0 0 0
SMALL
GASTEIGER

@<TRIPOS>ATOM
      1 O           6.4103   -1.0501    0.0000 O.3     1  UNL1       -0.4831
      2 O           6.0531    2.2542    0.0000 O.3     1  UNL1       -0.3943
      3 O           7.9939   -1.9774    0.0000 O.3     1  UNL1       -0.4947
      4 O           2.8660    0.7546    0.0000 O.3     1  UNL1       -0.4951
      5 O           9.9939    1.4866    0.0000 O.3     1  UNL1       -0.5062
      6 O          12.9939   -1.9774    0.0000 O.2     1  UNL1       -0.2963
      7 C           6.4103    0.5593    0.0000 C.3     1  UNL1        0.0521
      8 C           6.9939   -0.2454    0.0000 C.3     1  UNL1        0.1376
      9 C           5.4641    0.2546    0.0000 C.ar    1  UNL1        0.0069
     10 C           5.4641   -0.7454    0.0000 C.ar    1  UNL1        0.1253
     11 C           7.9939   -0.2454    0.0000 C.ar    1  UNL1        0.0384
     12 C           6.7210    1.5098    0.0000 C.3     1  UNL1        0.0548
     13 C           4.5981    0.7546    0.0000 C.ar    1  UNL1       -0.0128
     14 C           8.4939   -1.1114    0.0000 C.ar    1  UNL1        0.1276
     15 C           4.5981   -1.2454    0.0000 C.ar    1  UNL1       -0.0162
     16 C           8.4939    0.6206    0.0000 C.ar    1  UNL1       -0.0094
     17 C           3.7320    0.2546    0.0000 C.ar    1  UNL1        0.1206
     18 C           3.7320   -0.7454    0.0000 C.ar    1  UNL1       -0.0165
     19 C           9.4939   -1.1114    0.0000 C.ar    1  UNL1       -0.0089
     20 C           9.4939    0.6206    0.0000 C.ar    1  UNL1        0.1246
     21 C           9.9939   -0.2454    0.0000 C.ar    1  UNL1        0.0200
     22 C          10.9939   -0.2454    0.0000 C.2     1  UNL1       -0.0480
     23 C           8.4939   -2.8435    0.0000 C.3     1  UNL1        0.0788
     24 C           2.0000    0.2546    0.0000 C.3     1  UNL1        0.0788
     25 C          11.4939   -1.1114    0.0000 C.2     1  UNL1       -0.0218
     26 C          12.4939   -1.1114    0.0000 C.2     1  UNL1        0.1431
     27 H           5.9729    0.9987    0.0000 H       1  UNL1        0.0412
     28 H           7.3802   -1.0026    0.0000 H       1  UNL1        0.0792
     29 H           7.2679    1.2178    0.0000 H       1  UNL1        0.0564
     30 H           7.1035    1.9978    0.0000 H       1  UNL1        0.0564
     31 H           4.5981    1.3746    0.0000 H       1  UNL1        0.0658
     32 H           4.5981   -1.8654    0.0000 H       1  UNL1        0.0655
     33 H           8.1839    1.1576    0.0000 H       1  UNL1        0.0659
     34 H           3.1951   -1.0554    0.0000 H       1  UNL1        0.0655
     35 H           9.8039   -1.6484    0.0000 H       1  UNL1        0.0661
     36 H           6.2458    2.8435    0.0000 H       1  UNL1        0.2094
     37 H          11.3039    0.2915    0.0000 H       1  UNL1        0.0626
     38 H           9.6839    2.0236    0.0000 H       1  UNL1        0.2922
     39 H           7.9570   -3.1535    0.0000 H       1  UNL1        0.0660
     40 H           8.8039   -3.3804    0.0000 H       1  UNL1        0.0660
     41 H           9.0309   -2.5335    0.0000 H       1  UNL1        0.0660
     42 H           1.6900    0.7915    0.0000 H       1  UNL1        0.0660
     43 H           1.4631   -0.0554    0.0000 H       1  UNL1        0.0660
     44 H           2.3100   -0.2823    0.0000 H       1  UNL1        0.0660
     45 H          11.1839   -1.6484    0.0000 H       1  UNL1        0.0650
     46 H          12.8039   -0.5745    0.0000 H       1  UNL1        0.1075
@<TRIPOS>BOND
     1     1     8    1
     2     1    10    1
     3     2    12    1
     4     2    36    1
     5     3    14    1
     6     3    23    1
     7     4    17    1
     8     4    24    1
     9     5    20    1
    10     5    38    1
    11     6    26    2
    12     7     8    1
    13     7     9    1
    14     7    12    1
    15     7    27    1
    16     8    11    1
    17     8    28    1
    18     9    10   ar
    19     9    13   ar
    20    10    15   ar
    21    11    14   ar
    22    11    16   ar
    23    12    29    1
    24    12    30    1
    25    13    17   ar
    26    13    31    1
    27    14    19   ar
    28    15    18   ar
    29    15    32    1
    30    16    20   ar
    31    16    33    1
    32    17    18   ar
    33    18    34    1
    34    19    21   ar
    35    19    35    1
    36    20    21   ar
    37    21    22    1
    38    22    25    2
    39    22    37    1
    40    23    39    1
    41    23    40    1
    42    23    41    1
    43    24    42    1
    44    24    43    1
    45    24    44    1
    46    25    26    1
    47    25    45    1
    48    26    46    1
