@<TRIPOS>MOLECULE
IMPHY001669
 49 53 0 0 0
SMALL
GASTEIGER

@<TRIPOS>ATOM
      1 O           5.0846    0.3935    0.0000 O.3     1  UNL1       -0.4570
      2 O           7.0555    0.8093    0.0000 O.3     1  UNL1       -0.3869
      3 O           2.1399   -0.7071    0.0000 O.3     1  UNL1       -0.3907
      4 O           2.6627    0.9501    0.0000 O.2     1  UNL1       -0.2501
      5 O           6.1614    1.6219    0.0000 O.3     1  UNL1       -0.4804
      6 O           4.4354    1.4764    0.0000 O.2     1  UNL1       -0.2507
      7 C           6.1527   -0.4947    0.0000 C.3     1  UNL1        0.0208
      8 C           4.9387   -1.3404    0.0000 C.3     1  UNL1        0.1217
      9 C           5.8507   -1.3619    0.0000 C.3     1  UNL1        0.0084
     10 C           4.6756   -0.4664    0.0000 C.3     1  UNL1        0.0306
     11 C           5.4244    0.0545    0.0000 C.3     1  UNL1        0.0724
     12 C           3.7584   -0.2503    0.0000 C.3     1  UNL1        0.0978
     13 C           6.8486   -1.3272    0.0000 C.3     1  UNL1       -0.0369
     14 C           7.0195   -0.1901    0.0000 C.3     1  UNL1        0.0830
     15 C           6.3410   -2.1385    0.0000 C.3     1  UNL1       -0.0454
     16 C           7.9015   -1.5897    0.0000 C.3     1  UNL1       -0.0171
     17 C           4.3009   -2.0549    0.0000 C.3     1  UNL1       -0.0098
     18 C           7.2533   -2.2397    0.0000 C.3     1  UNL1       -0.0460
     19 C           3.1132   -0.9365    0.0000 C.3     1  UNL1        0.0712
     20 C           7.7971   -0.6771    0.0000 C.2     1  UNL1       -0.0449
     21 C           3.3847   -1.8392    0.0000 C.3     1  UNL1       -0.0222
     22 C           3.4935    0.3935    0.0000 C.2     1  UNL1        0.3165
     23 C           5.3404    1.0509    0.0000 C.2     1  UNL1        0.3089
     24 C           2.7749   -0.0692    0.0000 C.3     1  UNL1       -0.0466
     25 C           8.6007   -0.0820    0.0000 C.2     1  UNL1       -0.0967
     26 H           5.4316   -2.1014    0.0000 H       1  UNL1        0.0346
     27 H           4.2406    0.2639    0.0000 H       1  UNL1        0.0359
     28 H           5.9672    0.3541    0.0000 H       1  UNL1        0.0424
     29 H           6.8915   -1.9457    0.0000 H       1  UNL1        0.0278
     30 H           6.2735   -1.5587    0.0000 H       1  UNL1        0.0278
     31 H           7.5672    0.1004    0.0000 H       1  UNL1        0.0646
     32 H           6.4115   -2.7544    0.0000 H       1  UNL1        0.0270
     33 H           5.7562   -2.3444    0.0000 H       1  UNL1        0.0270
     34 H           8.7042   -1.8692    0.0000 H       1  UNL1        0.0347
     35 H           4.8252   -2.3858    0.0000 H       1  UNL1        0.0305
     36 H           4.0611   -2.6267    0.0000 H       1  UNL1        0.0305
     37 H           7.7787   -2.5688    0.0000 H       1  UNL1        0.0271
     38 H           7.0494   -2.8253    0.0000 H       1  UNL1        0.0271
     39 H           2.6883   -1.3880    0.0000 H       1  UNL1        0.0604
     40 H           3.3495   -2.4582    0.0000 H       1  UNL1        0.0292
     41 H           2.7690   -1.9120    0.0000 H       1  UNL1        0.0292
     42 H           2.6626   -0.6789    0.0000 H       1  UNL1        0.0241
     43 H           2.1652    0.0432    0.0000 H       1  UNL1        0.0241
     44 H           2.8872    0.5406    0.0000 H       1  UNL1        0.0241
     45 H           7.6032    1.0998    0.0000 H       1  UNL1        0.2102
     46 H           8.5303    0.5340    0.0000 H       1  UNL1        0.0535
     47 H           9.1694   -0.3290    0.0000 H       1  UNL1        0.0535
     48 H           1.7150   -1.1586    0.0000 H       1  UNL1        0.2098
     49 H           6.1093    2.2397    0.0000 H       1  UNL1        0.2951
@<TRIPOS>BOND
     1     8     1    1
     2     1    22    1
     3    14     2    1
     4     2    45    1
     5    19     3    1
     6     3    48    1
     7     4    22    2
     8     5    23    1
     9     5    49    1
    10     6    23    2
    11     7     9    1
    12     7    11    1
    13     7    13    1
    14     7    14    1
    15     8     9    1
    16     8    10    1
    17     8    17    1
    18     9    15    1
    19     9    26    1
    20    10    11    1
    21    10    12    1
    22    10    27    1
    23    11    23    1
    24    11    28    1
    25    12    19    1
    26    12    22    1
    27    12    24    1
    28    13    16    1
    29    13    29    1
    30    13    30    1
    31    14    20    1
    32    14    31    1
    33    15    18    1
    34    15    32    1
    35    15    33    1
    36    16    18    1
    37    16    20    1
    38    16    34    1
    39    17    21    1
    40    17    35    1
    41    17    36    1
    42    18    37    1
    43    18    38    1
    44    19    21    1
    45    19    39    1
    46    20    25    2
    47    21    40    1
    48    21    41    1
    49    24    42    1
    50    24    43    1
    51    24    44    1
    52    25    46    1
    53    25    47    1
