@<TRIPOS>MOLECULE
IMPHY014071
 54 55 0 0 0
SMALL
GASTEIGER

@<TRIPOS>ATOM
      1 O           4.6660    2.0000    0.0000 O.2     1  UNL1       -0.2872
      2 N           4.6660   -1.0000    0.0000 N.ar    1  UNL1       -0.3466
      3 C           8.9962   -0.5000    0.0000 C.3     1  UNL1       -0.0530
      4 C           9.8622   -1.0000    0.0000 C.3     1  UNL1       -0.0531
      5 C           8.1301   -1.0000    0.0000 C.3     1  UNL1       -0.0527
      6 C          10.7282   -0.5000    0.0000 C.3     1  UNL1       -0.0531
      7 C           7.2641   -0.5000    0.0000 C.3     1  UNL1       -0.0477
      8 C          11.5942   -1.0000    0.0000 C.3     1  UNL1       -0.0531
      9 C           6.3981   -1.0000    0.0000 C.3     1  UNL1       -0.0122
     10 C          12.4603   -0.5000    0.0000 C.3     1  UNL1       -0.0531
     11 C           5.5321   -0.5000    0.0000 C.ar    1  UNL1        0.0225
     12 C          13.3263   -1.0000    0.0000 C.3     1  UNL1       -0.0533
     13 C          14.1923   -0.5000    0.0000 C.3     1  UNL1       -0.0559
     14 C           3.8000   -0.5000    0.0000 C.ar    1  UNL1        0.0527
     15 C           5.5321    0.5000    0.0000 C.ar    1  UNL1        0.0051
     16 C           3.8000    0.5000    0.0000 C.ar    1  UNL1        0.0452
     17 C           4.6660    1.0000    0.0000 C.ar    1  UNL1        0.1897
     18 C           4.6660   -2.0000    0.0000 C.3     1  UNL1        0.0121
     19 C          15.0583   -1.0000    0.0000 C.3     1  UNL1       -0.0653
     20 C           2.9061   -1.0347    0.0000 C.ar    1  UNL1       -0.0375
     21 C           2.9061    1.0347    0.0000 C.ar    1  UNL1       -0.0490
     22 C           2.0000   -0.5208    0.0000 C.ar    1  UNL1       -0.0598
     23 C           2.0000    0.5208    0.0000 C.ar    1  UNL1       -0.0610
     24 H           9.3947   -0.0251    0.0000 H       1  UNL1        0.0265
     25 H           8.5976   -0.0251    0.0000 H       1  UNL1        0.0265
     26 H           9.4637   -1.4750    0.0000 H       1  UNL1        0.0265
     27 H          10.2607   -1.4750    0.0000 H       1  UNL1        0.0265
     28 H           7.7316   -1.4750    0.0000 H       1  UNL1        0.0265
     29 H           8.5287   -1.4750    0.0000 H       1  UNL1        0.0265
     30 H          11.1267   -0.0251    0.0000 H       1  UNL1        0.0265
     31 H          10.3297   -0.0251    0.0000 H       1  UNL1        0.0265
     32 H           7.6626   -0.0251    0.0000 H       1  UNL1        0.0269
     33 H           6.8656   -0.0251    0.0000 H       1  UNL1        0.0269
     34 H          11.1957   -1.4750    0.0000 H       1  UNL1        0.0265
     35 H          11.9928   -1.4750    0.0000 H       1  UNL1        0.0265
     36 H           5.9996   -1.4750    0.0000 H       1  UNL1        0.0328
     37 H           6.7966   -1.4750    0.0000 H       1  UNL1        0.0328
     38 H          12.8588   -0.0251    0.0000 H       1  UNL1        0.0265
     39 H          12.0617   -0.0251    0.0000 H       1  UNL1        0.0265
     40 H          12.9278   -1.4750    0.0000 H       1  UNL1        0.0265
     41 H          13.7248   -1.4750    0.0000 H       1  UNL1        0.0265
     42 H          14.5908   -0.0251    0.0000 H       1  UNL1        0.0263
     43 H          13.7938   -0.0251    0.0000 H       1  UNL1        0.0263
     44 H           6.0690    0.8100    0.0000 H       1  UNL1        0.0673
     45 H           4.0460   -2.0000    0.0000 H       1  UNL1        0.0456
     46 H           4.6660   -2.6200    0.0000 H       1  UNL1        0.0456
     47 H           5.2860   -2.0000    0.0000 H       1  UNL1        0.0456
     48 H          14.7483   -1.5369    0.0000 H       1  UNL1        0.0230
     49 H          15.5953   -1.3100    0.0000 H       1  UNL1        0.0230
     50 H          15.3683   -0.4631    0.0000 H       1  UNL1        0.0230
     51 H           2.9132   -1.6546    0.0000 H       1  UNL1        0.0638
     52 H           2.9132    1.6546    0.0000 H       1  UNL1        0.0625
     53 H           1.4643   -0.8329    0.0000 H       1  UNL1        0.0618
     54 H           1.4643    0.8329    0.0000 H       1  UNL1        0.0618
@<TRIPOS>BOND
     1     1    17    2
     2     2    11   ar
     3     2    14   ar
     4     2    18    1
     5     3     4    1
     6     3     5    1
     7     3    24    1
     8     3    25    1
     9     4     6    1
    10     4    26    1
    11     4    27    1
    12     5     7    1
    13     5    28    1
    14     5    29    1
    15     6     8    1
    16     6    30    1
    17     6    31    1
    18     7     9    1
    19     7    32    1
    20     7    33    1
    21     8    10    1
    22     8    34    1
    23     8    35    1
    24     9    11    1
    25     9    36    1
    26     9    37    1
    27    10    12    1
    28    10    38    1
    29    10    39    1
    30    11    15   ar
    31    12    13    1
    32    12    40    1
    33    12    41    1
    34    13    19    1
    35    13    42    1
    36    13    43    1
    37    14    16   ar
    38    14    20   ar
    39    15    17   ar
    40    15    44    1
    41    16    17   ar
    42    16    21   ar
    43    18    45    1
    44    18    46    1
    45    18    47    1
    46    19    48    1
    47    19    49    1
    48    19    50    1
    49    20    22   ar
    50    20    51    1
    51    21    23   ar
    52    21    52    1
    53    22    23   ar
    54    22    53    1
    55    23    54    1
