@<TRIPOS>MOLECULE
IMPHY003484
 16 16 0 0 0
SMALL
GASTEIGER

@<TRIPOS>ATOM
      1 N           3.7320   -1.0000    0.0000 N.ar    1  UNL1       -0.2569
      2 N           3.7320    1.0000    0.0000 N.ar    1  UNL1       -0.2569
      3 C           2.8660   -0.5000    0.0000 C.ar    1  UNL1        0.0563
      4 C           4.5981    0.5000    0.0000 C.ar    1  UNL1        0.0563
      5 C           2.8660    0.5000    0.0000 C.ar    1  UNL1        0.0489
      6 C           4.5981   -0.5000    0.0000 C.ar    1  UNL1        0.0489
      7 C           2.0000   -1.0000    0.0000 C.3     1  UNL1       -0.0209
      8 C           5.4641    1.0000    0.0000 C.3     1  UNL1       -0.0209
      9 H           2.3291    0.8100    0.0000 H       1  UNL1        0.0848
     10 H           5.1350   -0.8100    0.0000 H       1  UNL1        0.0848
     11 H           1.6900   -0.4631    0.0000 H       1  UNL1        0.0293
     12 H           1.4631   -1.3100    0.0000 H       1  UNL1        0.0293
     13 H           2.3100   -1.5369    0.0000 H       1  UNL1        0.0293
     14 H           5.7741    0.4631    0.0000 H       1  UNL1        0.0293
     15 H           6.0010    1.3100    0.0000 H       1  UNL1        0.0293
     16 H           5.1541    1.5369    0.0000 H       1  UNL1        0.0293
@<TRIPOS>BOND
     1     1     3   ar
     2     1     6   ar
     3     2     4   ar
     4     2     5   ar
     5     3     5   ar
     6     3     7    1
     7     4     6   ar
     8     4     8    1
     9     5     9    1
    10     6    10    1
    11     7    11    1
    12     7    12    1
    13     7    13    1
    14     8    14    1
    15     8    15    1
    16     8    16    1
