@<TRIPOS>MOLECULE
IMPHY013360
 56 58 0 0 0
SMALL
GASTEIGER

@<TRIPOS>ATOM
      1 O           9.8222   -1.0347    0.0000 O.3     1  UNL1       -0.4773
      2 O          14.2382    2.0638    0.0000 O.3     1  UNL1       -0.3851
      3 O           8.0622    2.0000    0.0000 O.3     1  UNL1       -0.5053
      4 O           8.0622   -2.0000    0.0000 O.3     1  UNL1       -0.5033
      5 O           6.3301    2.0000    0.0000 O.2     1  UNL1       -0.2872
      6 C          10.7282   -0.5208    0.0000 C.3     1  UNL1        0.1298
      7 C          11.7282   -0.5247    0.0000 C.3     1  UNL1        0.0088
      8 C          10.7282    0.5208    0.0000 C.2     1  UNL1       -0.0402
      9 C          11.2249   -1.3888    0.0000 C.3     1  UNL1       -0.0209
     10 C           8.9282   -0.5000    0.0000 C.ar    1  UNL1        0.1736
     11 C           8.9282    0.5000    0.0000 C.ar    1  UNL1        0.0622
     12 C           9.8222    1.0347    0.0000 C.2     1  UNL1       -0.0477
     13 C          12.2315    0.3394    0.0000 C.2     1  UNL1       -0.0812
     14 C          13.7349    1.1997    0.0000 C.3     1  UNL1        0.0786
     15 C          13.2315    0.3356    0.0000 C.2     1  UNL1       -0.0572
     16 C           8.0622    1.0000    0.0000 C.ar    1  UNL1        0.1385
     17 C           8.0622   -1.0000    0.0000 C.ar    1  UNL1        0.1600
     18 C           7.1962    0.5000    0.0000 C.ar    1  UNL1        0.0673
     19 C           7.1962   -0.5000    0.0000 C.ar    1  UNL1       -0.0022
     20 C          14.5990    0.6963    0.0000 C.3     1  UNL1       -0.0327
     21 C          12.8708    1.7030    0.0000 C.3     1  UNL1       -0.0327
     22 C           6.3301    1.0000    0.0000 C.2     1  UNL1        0.1897
     23 C           5.4641    0.5000    0.0000 C.2     1  UNL1       -0.0137
     24 C           4.5981    1.0000    0.0000 C.2     1  UNL1       -0.0510
     25 C           3.7320    0.5000    0.0000 C.ar    1  UNL1       -0.0249
     26 C           2.8660    1.0000    0.0000 C.ar    1  UNL1       -0.0546
     27 C           3.7320   -0.5000    0.0000 C.ar    1  UNL1       -0.0546
     28 C           2.0000    0.5000    0.0000 C.ar    1  UNL1       -0.0612
     29 C           2.8660   -1.0000    0.0000 C.ar    1  UNL1       -0.0612
     30 C           2.0000   -0.5000    0.0000 C.ar    1  UNL1       -0.0617
     31 H          11.6182   -1.1348    0.0000 H       1  UNL1        0.0349
     32 H          12.3100   -0.7390    0.0000 H       1  UNL1        0.0349
     33 H          11.2639    0.8329    0.0000 H       1  UNL1        0.0611
     34 H          10.6867   -1.6967    0.0000 H       1  UNL1        0.0271
     35 H          11.5328   -1.9269    0.0000 H       1  UNL1        0.0271
     36 H          11.7630   -1.0808    0.0000 H       1  UNL1        0.0271
     37 H           9.8150    1.6546    0.0000 H       1  UNL1        0.0624
     38 H          11.9236    0.8775    0.0000 H       1  UNL1        0.0571
     39 H          13.5395   -0.2026    0.0000 H       1  UNL1        0.0597
     40 H           6.6592   -0.8100    0.0000 H       1  UNL1        0.0663
     41 H          14.2869    0.1606    0.0000 H       1  UNL1        0.0260
     42 H          15.1347    0.3843    0.0000 H       1  UNL1        0.0260
     43 H          14.9110    1.2321    0.0000 H       1  UNL1        0.0260
     44 H          13.1828    2.2387    0.0000 H       1  UNL1        0.0260
     45 H          12.3350    2.0151    0.0000 H       1  UNL1        0.0260
     46 H          12.5587    1.1673    0.0000 H       1  UNL1        0.0260
     47 H          14.8582    2.0614    0.0000 H       1  UNL1        0.2106
     48 H           8.5991    2.3100    0.0000 H       1  UNL1        0.2922
     49 H           7.5252   -2.3100    0.0000 H       1  UNL1        0.2923
     50 H           5.4641   -0.1200    0.0000 H       1  UNL1        0.0656
     51 H           4.5981    1.6200    0.0000 H       1  UNL1        0.0625
     52 H           2.8660    1.6200    0.0000 H       1  UNL1        0.0623
     53 H           4.2690   -0.8100    0.0000 H       1  UNL1        0.0623
     54 H           1.4631    0.8100    0.0000 H       1  UNL1        0.0618
     55 H           2.8660   -1.6200    0.0000 H       1  UNL1        0.0618
     56 H           1.4631   -0.8100    0.0000 H       1  UNL1        0.0618
@<TRIPOS>BOND
     1     1     6    1
     2     1    10    1
     3     2    14    1
     4     2    47    1
     5     3    16    1
     6     3    48    1
     7     4    17    1
     8     4    49    1
     9     5    22    2
    10     6     7    1
    11     6     8    1
    12     6     9    1
    13     7    13    1
    14     7    31    1
    15     7    32    1
    16     8    12    2
    17     8    33    1
    18     9    34    1
    19     9    35    1
    20     9    36    1
    21    10    11   ar
    22    10    17   ar
    23    11    12    1
    24    11    16   ar
    25    12    37    1
    26    13    15    2
    27    13    38    1
    28    14    15    1
    29    14    20    1
    30    14    21    1
    31    15    39    1
    32    16    18   ar
    33    17    19   ar
    34    18    19   ar
    35    18    22    1
    36    19    40    1
    37    20    41    1
    38    20    42    1
    39    20    43    1
    40    21    44    1
    41    21    45    1
    42    21    46    1
    43    22    23    1
    44    23    24    2
    45    23    50    1
    46    24    25    1
    47    24    51    1
    48    25    26   ar
    49    25    27   ar
    50    26    28   ar
    51    26    52    1
    52    27    29   ar
    53    27    53    1
    54    28    30   ar
    55    28    54    1
    56    29    30   ar
    57    29    55    1
    58    30    56    1
