@<TRIPOS>MOLECULE
IMPHY006657
 34 35 0 0 0
SMALL
GASTEIGER

@<TRIPOS>ATOM
      1 O           2.0000    2.0000    0.0000 O.3     1  UNL1       -0.3891
      2 O           7.2241   -2.0347    0.0000 O.2     1  UNL1       -0.4220
      3 O           3.7320   -2.0000    0.0000 O.3     1  UNL1       -0.5064
      4 O           8.9942   -2.0242    0.0000 O.2     1  UNL1       -0.2452
      5 C           2.8660    1.5000    0.0000 C.3     1  UNL1        0.0608
      6 C           3.7320    1.0000    0.0000 C.3     1  UNL1       -0.0204
      7 C           3.7320    0.0000    0.0000 C.3     1  UNL1       -0.0216
      8 C           4.5981   -0.5000    0.0000 C.ar    1  UNL1       -0.0051
      9 C           3.3660    2.3660    0.0000 C.3     1  UNL1       -0.0363
     10 C           2.3660    0.6340    0.0000 C.3     1  UNL1       -0.0363
     11 C           5.4641    0.0000    0.0000 C.ar    1  UNL1       -0.0444
     12 C           4.5981   -1.5000    0.0000 C.ar    1  UNL1        0.1235
     13 C           6.3301   -0.5000    0.0000 C.ar    1  UNL1        0.0181
     14 C           6.3301   -1.5000    0.0000 C.ar    1  UNL1        0.1425
     15 C           5.4641   -2.0000    0.0000 C.ar    1  UNL1        0.0231
     16 C           7.2241    0.0347    0.0000 C.ar    1  UNL1       -0.0443
     17 C           8.1301   -0.4792    0.0000 C.ar    1  UNL1        0.0236
     18 C           8.1301   -1.5208    0.0000 C.ar    1  UNL1        0.3372
     19 H           4.3426    0.8923    0.0000 H       1  UNL1        0.0296
     20 H           3.9441    1.5826    0.0000 H       1  UNL1        0.0296
     21 H           3.1215    0.1077    0.0000 H       1  UNL1        0.0315
     22 H           3.5200   -0.5826    0.0000 H       1  UNL1        0.0315
     23 H           1.8291    0.9440    0.0000 H       1  UNL1        0.0257
     24 H           2.0560    0.0970    0.0000 H       1  UNL1        0.0257
     25 H           3.9030    2.0560    0.0000 H       1  UNL1        0.0257
     26 H           3.6760    2.9030    0.0000 H       1  UNL1        0.0257
     27 H           2.8291    2.6760    0.0000 H       1  UNL1        0.0257
     28 H           2.9030    0.3240    0.0000 H       1  UNL1        0.0257
     29 H           5.4641    0.6200    0.0000 H       1  UNL1        0.0628
     30 H           2.0000    2.6200    0.0000 H       1  UNL1        0.2101
     31 H           5.4641   -2.6200    0.0000 H       1  UNL1        0.0691
     32 H           7.2169    0.6546    0.0000 H       1  UNL1        0.0627
     33 H           8.6659   -0.1671    0.0000 H       1  UNL1        0.0689
     34 H           3.7320   -2.6200    0.0000 H       1  UNL1        0.2921
@<TRIPOS>BOND
     1     1     5    1
     2     1    30    1
     3     2    14   ar
     4     2    18   ar
     5     3    12    1
     6     3    34    1
     7     4    18    2
     8     5     6    1
     9     5     9    1
    10     5    10    1
    11     6     7    1
    12     6    19    1
    13     6    20    1
    14     7     8    1
    15     7    21    1
    16     7    22    1
    17     8    11   ar
    18     8    12   ar
    19     9    25    1
    20     9    26    1
    21     9    27    1
    22    10    23    1
    23    10    24    1
    24    10    28    1
    25    11    13   ar
    26    11    29    1
    27    12    15   ar
    28    13    14   ar
    29    13    16   ar
    30    14    15   ar
    31    15    31    1
    32    16    17   ar
    33    16    32    1
    34    17    18   ar
    35    17    33    1
