@<TRIPOS>MOLECULE
IMPHY016490
 81 80 0 0 0
SMALL
GASTEIGER

@<TRIPOS>ATOM
      1 C           9.7942   -0.2500    0.0000 C.3     1  UNL1       -0.0531
      2 C           8.9282    0.2500    0.0000 C.3     1  UNL1       -0.0531
      3 C          10.6603    0.2500    0.0000 C.3     1  UNL1       -0.0531
      4 C           8.0622   -0.2500    0.0000 C.3     1  UNL1       -0.0531
      5 C          11.5263   -0.2500    0.0000 C.3     1  UNL1       -0.0531
      6 C           7.1962    0.2500    0.0000 C.3     1  UNL1       -0.0531
      7 C          12.3923    0.2500    0.0000 C.3     1  UNL1       -0.0531
      8 C           6.3301   -0.2500    0.0000 C.3     1  UNL1       -0.0531
      9 C          13.2583   -0.2500    0.0000 C.3     1  UNL1       -0.0530
     10 C           5.4641    0.2500    0.0000 C.3     1  UNL1       -0.0531
     11 C          14.1244    0.2500    0.0000 C.3     1  UNL1       -0.0528
     12 C           4.5981   -0.2500    0.0000 C.3     1  UNL1       -0.0531
     13 C          14.9904   -0.2500    0.0000 C.3     1  UNL1       -0.0496
     14 C           3.7320    0.2500    0.0000 C.3     1  UNL1       -0.0533
     15 C          15.8564    0.2500    0.0000 C.3     1  UNL1       -0.0348
     16 C          20.1865   -0.2500    0.0000 C.3     1  UNL1       -0.0528
     17 C          21.0526    0.2500    0.0000 C.3     1  UNL1       -0.0530
     18 C          19.3205    0.2500    0.0000 C.3     1  UNL1       -0.0496
     19 C          21.9186   -0.2500    0.0000 C.3     1  UNL1       -0.0531
     20 C           2.8660   -0.2500    0.0000 C.3     1  UNL1       -0.0559
     21 C          18.4545   -0.2500    0.0000 C.3     1  UNL1       -0.0348
     22 C          22.7846    0.2500    0.0000 C.3     1  UNL1       -0.0533
     23 C          16.7224   -0.2500    0.0000 C.2     1  UNL1       -0.0879
     24 C          17.5885    0.2500    0.0000 C.2     1  UNL1       -0.0879
     25 C          23.6506   -0.2500    0.0000 C.3     1  UNL1       -0.0559
     26 C           2.0000    0.2500    0.0000 C.3     1  UNL1       -0.0653
     27 C          24.5167    0.2500    0.0000 C.3     1  UNL1       -0.0653
     28 H           9.3957   -0.7249    0.0000 H       1  UNL1        0.0265
     29 H          10.1928   -0.7249    0.0000 H       1  UNL1        0.0265
     30 H           9.3267    0.7249    0.0000 H       1  UNL1        0.0265
     31 H           8.5297    0.7249    0.0000 H       1  UNL1        0.0265
     32 H          11.0588    0.7249    0.0000 H       1  UNL1        0.0265
     33 H          10.2617    0.7249    0.0000 H       1  UNL1        0.0265
     34 H           7.6636   -0.7249    0.0000 H       1  UNL1        0.0265
     35 H           8.4607   -0.7249    0.0000 H       1  UNL1        0.0265
     36 H          11.1278   -0.7249    0.0000 H       1  UNL1        0.0265
     37 H          11.9248   -0.7249    0.0000 H       1  UNL1        0.0265
     38 H           7.5947    0.7249    0.0000 H       1  UNL1        0.0265
     39 H           6.7976    0.7249    0.0000 H       1  UNL1        0.0265
     40 H          12.7908    0.7249    0.0000 H       1  UNL1        0.0265
     41 H          11.9938    0.7249    0.0000 H       1  UNL1        0.0265
     42 H           5.9316   -0.7249    0.0000 H       1  UNL1        0.0265
     43 H           6.7287   -0.7249    0.0000 H       1  UNL1        0.0265
     44 H          12.8598   -0.7249    0.0000 H       1  UNL1        0.0265
     45 H          13.6569   -0.7249    0.0000 H       1  UNL1        0.0265
     46 H           5.8626    0.7249    0.0000 H       1  UNL1        0.0265
     47 H           5.0656    0.7249    0.0000 H       1  UNL1        0.0265
     48 H          14.5229    0.7249    0.0000 H       1  UNL1        0.0265
     49 H          13.7258    0.7249    0.0000 H       1  UNL1        0.0265
     50 H           4.1996   -0.7249    0.0000 H       1  UNL1        0.0265
     51 H           4.9966   -0.7249    0.0000 H       1  UNL1        0.0265
     52 H          14.5919   -0.7249    0.0000 H       1  UNL1        0.0268
     53 H          15.3889   -0.7249    0.0000 H       1  UNL1        0.0268
     54 H           4.1306    0.7249    0.0000 H       1  UNL1        0.0265
     55 H           3.3335    0.7249    0.0000 H       1  UNL1        0.0265
     56 H          16.2549    0.7249    0.0000 H       1  UNL1        0.0307
     57 H          15.4579    0.7249    0.0000 H       1  UNL1        0.0307
     58 H          19.7880   -0.7249    0.0000 H       1  UNL1        0.0265
     59 H          20.5851   -0.7249    0.0000 H       1  UNL1        0.0265
     60 H          21.4511    0.7249    0.0000 H       1  UNL1        0.0265
     61 H          20.6540    0.7249    0.0000 H       1  UNL1        0.0265
     62 H          19.7190    0.7249    0.0000 H       1  UNL1        0.0268
     63 H          18.9220    0.7249    0.0000 H       1  UNL1        0.0268
     64 H          21.5201   -0.7249    0.0000 H       1  UNL1        0.0265
     65 H          22.3171   -0.7249    0.0000 H       1  UNL1        0.0265
     66 H           2.4675   -0.7249    0.0000 H       1  UNL1        0.0263
     67 H           3.2646   -0.7249    0.0000 H       1  UNL1        0.0263
     68 H          18.0560   -0.7249    0.0000 H       1  UNL1        0.0307
     69 H          18.8530   -0.7249    0.0000 H       1  UNL1        0.0307
     70 H          23.1831    0.7249    0.0000 H       1  UNL1        0.0265
     71 H          22.3861    0.7249    0.0000 H       1  UNL1        0.0265
     72 H          16.7224   -0.8700    0.0000 H       1  UNL1        0.0569
     73 H          17.5885    0.8700    0.0000 H       1  UNL1        0.0569
     74 H          23.2521   -0.7249    0.0000 H       1  UNL1        0.0263
     75 H          24.0492   -0.7249    0.0000 H       1  UNL1        0.0263
     76 H           2.3100    0.7869    0.0000 H       1  UNL1        0.0230
     77 H           1.4631    0.5600    0.0000 H       1  UNL1        0.0230
     78 H           1.6900   -0.2869    0.0000 H       1  UNL1        0.0230
     79 H          24.8267   -0.2869    0.0000 H       1  UNL1        0.0230
     80 H          25.0536    0.5600    0.0000 H       1  UNL1        0.0230
     81 H          24.2067    0.7869    0.0000 H       1  UNL1        0.0230
@<TRIPOS>BOND
     1     1     2    1
     2     1     3    1
     3     1    28    1
     4     1    29    1
     5     2     4    1
     6     2    30    1
     7     2    31    1
     8     3     5    1
     9     3    32    1
    10     3    33    1
    11     4     6    1
    12     4    34    1
    13     4    35    1
    14     5     7    1
    15     5    36    1
    16     5    37    1
    17     6     8    1
    18     6    38    1
    19     6    39    1
    20     7     9    1
    21     7    40    1
    22     7    41    1
    23     8    10    1
    24     8    42    1
    25     8    43    1
    26     9    11    1
    27     9    44    1
    28     9    45    1
    29    10    12    1
    30    10    46    1
    31    10    47    1
    32    11    13    1
    33    11    48    1
    34    11    49    1
    35    12    14    1
    36    12    50    1
    37    12    51    1
    38    13    15    1
    39    13    52    1
    40    13    53    1
    41    14    20    1
    42    14    54    1
    43    14    55    1
    44    15    23    1
    45    15    56    1
    46    15    57    1
    47    16    17    1
    48    16    18    1
    49    16    58    1
    50    16    59    1
    51    17    19    1
    52    17    60    1
    53    17    61    1
    54    18    21    1
    55    18    62    1
    56    18    63    1
    57    19    22    1
    58    19    64    1
    59    19    65    1
    60    20    26    1
    61    20    66    1
    62    20    67    1
    63    21    24    1
    64    21    68    1
    65    21    69    1
    66    22    25    1
    67    22    70    1
    68    22    71    1
    69    23    24    2
    70    23    72    1
    71    24    73    1
    72    25    27    1
    73    25    74    1
    74    25    75    1
    75    26    76    1
    76    26    77    1
    77    26    78    1
    78    27    79    1
    79    27    80    1
    80    27    81    1
