@<TRIPOS>MOLECULE
IMPHY002779
 62 64 0 0 0
SMALL
GASTEIGER

@<TRIPOS>ATOM
      1 O           4.4094   -1.0693    0.0000 O.3     1  UNL1       -0.3571
      2 O           5.6454    1.4051    0.0000 O.3     1  UNL1       -0.3775
      3 O           7.9014   -1.0346    0.0000 O.3     1  UNL1       -0.4585
      4 O           6.1694   -2.0346    0.0000 O.3     1  UNL1       -0.3851
      5 O           4.4210    2.0000    0.0000 O.2     1  UNL1       -0.2941
      6 O           7.0354   -2.5346    0.0000 O.2     1  UNL1       -0.2512
      7 C           6.1694    0.9654    0.0000 C.3     1  UNL1        0.0132
      8 C           7.0354    0.4654    0.0000 C.3     1  UNL1        0.0124
      9 C           5.3033    0.4654    0.0000 C.3     1  UNL1        0.1602
     10 C           5.3033   -0.5346    0.0000 C.3     1  UNL1        0.1328
     11 C           7.9454    0.9722    0.0000 C.3     1  UNL1       -0.0280
     12 C           7.0354   -0.5346    0.0000 C.3     1  UNL1        0.1354
     13 C           6.1533    2.0069    0.0000 C.3     1  UNL1       -0.0441
     14 C           6.1694   -1.0346    0.0000 C.3     1  UNL1        0.1240
     15 C           7.9534    2.0138    0.0000 C.3     1  UNL1       -0.0475
     16 C           7.0513    2.5346    0.0000 C.3     1  UNL1       -0.0520
     17 C           4.8694    0.9654    0.0000 C.3     1  UNL1       -0.0560
     18 C           4.4094    1.0000    0.0000 C.2     1  UNL1        0.1711
     19 C           5.3033   -1.5346    0.0000 C.3     1  UNL1       -0.0300
     20 C           8.9453    0.9607    0.0000 C.3     1  UNL1       -0.0594
     21 C           8.4353    0.1005    0.0000 C.3     1  UNL1       -0.0594
     22 C           3.5033   -0.5554    0.0000 C.3     1  UNL1        0.0922
     23 C           3.5033    0.4862    0.0000 C.3     1  UNL1        0.0413
     24 C           3.0067   -1.4234    0.0000 C.3     1  UNL1       -0.0318
     25 C           2.5033   -0.5593    0.0000 C.2     1  UNL1       -0.0595
     26 C           7.9014   -2.0346    0.0000 C.2     1  UNL1        0.3043
     27 C           2.0000    0.3048    0.0000 C.2     1  UNL1       -0.0999
     28 C           8.7674   -2.5346    0.0000 C.3     1  UNL1        0.0332
     29 H           7.7682    0.0347    0.0000 H       1  UNL1        0.0349
     30 H           7.0354   -1.1546    0.0000 H       1  UNL1        0.0764
     31 H           5.9353    2.5873    0.0000 H       1  UNL1        0.0272
     32 H           5.5442    1.8914    0.0000 H       1  UNL1        0.0272
     33 H           5.6324   -1.3446    0.0000 H       1  UNL1        0.0660
     34 H           8.5634    1.9030    0.0000 H       1  UNL1        0.0271
     35 H           8.1670    2.5959    0.0000 H       1  UNL1        0.0271
     36 H           7.4486    3.0106    0.0000 H       1  UNL1        0.0266
     37 H           6.6504    3.0075    0.0000 H       1  UNL1        0.0266
     38 H           4.8694    1.5854    0.0000 H       1  UNL1        0.0236
     39 H           4.2494    0.9654    0.0000 H       1  UNL1        0.0236
     40 H           4.8694    0.3454    0.0000 H       1  UNL1        0.0236
     41 H           4.6833   -1.5346    0.0000 H       1  UNL1        0.0259
     42 H           5.3033   -2.1546    0.0000 H       1  UNL1        0.0259
     43 H           5.9233   -1.5346    0.0000 H       1  UNL1        0.0259
     44 H           8.9382    0.3407    0.0000 H       1  UNL1        0.0235
     45 H           9.5653    0.9535    0.0000 H       1  UNL1        0.0235
     46 H           8.9525    1.5806    0.0000 H       1  UNL1        0.0235
     47 H           7.8949   -0.2033    0.0000 H       1  UNL1        0.0235
     48 H           8.7391   -0.4400    0.0000 H       1  UNL1        0.0235
     49 H           8.9758    0.4042    0.0000 H       1  UNL1        0.0235
     50 H           3.2943    1.0699    0.0000 H       1  UNL1        0.0374
     51 H           2.8925    0.3801    0.0000 H       1  UNL1        0.0374
     52 H           5.2468    1.8800    0.0000 H       1  UNL1        0.2109
     53 H           5.6324   -2.3446    0.0000 H       1  UNL1        0.2101
     54 H           2.4685   -1.1155    0.0000 H       1  UNL1        0.0261
     55 H           2.6987   -1.9615    0.0000 H       1  UNL1        0.0261
     56 H           3.5448   -1.7313    0.0000 H       1  UNL1        0.0261
     57 H           2.1954   -1.0974    0.0000 H       1  UNL1        0.0595
     58 H           2.3079    0.8429    0.0000 H       1  UNL1        0.0533
     59 H           1.3800    0.3024    0.0000 H       1  UNL1        0.0533
     60 H           8.4574   -3.0716    0.0000 H       1  UNL1        0.0342
     61 H           9.3044   -2.8446    0.0000 H       1  UNL1        0.0342
     62 H           9.0774   -1.9977    0.0000 H       1  UNL1        0.0342
@<TRIPOS>BOND
     1     1    10    1
     2     1    22    1
     3     9     2    1
     4     2    52    1
     5    12     3    1
     6     3    26    1
     7    14     4    1
     8     4    53    1
     9     5    18    2
    10     6    26    2
    11     7     8    1
    12     7     9    1
    13     7    13    1
    14     7    17    1
    15     8    11    1
    16     8    12    1
    17     8    29    1
    18     9    10    1
    19     9    18    1
    20    10    14    1
    21    10    19    1
    22    11    15    1
    23    11    20    1
    24    11    21    1
    25    12    14    1
    26    12    30    1
    27    13    16    1
    28    13    31    1
    29    13    32    1
    30    14    33    1
    31    15    16    1
    32    15    34    1
    33    15    35    1
    34    16    36    1
    35    16    37    1
    36    17    38    1
    37    17    39    1
    38    17    40    1
    39    18    23    1
    40    19    41    1
    41    19    42    1
    42    19    43    1
    43    20    44    1
    44    20    45    1
    45    20    46    1
    46    21    47    1
    47    21    48    1
    48    21    49    1
    49    22    23    1
    50    22    24    1
    51    22    25    1
    52    23    50    1
    53    23    51    1
    54    24    54    1
    55    24    55    1
    56    24    56    1
    57    25    27    2
    58    25    57    1
    59    26    28    1
    60    27    58    1
    61    27    59    1
    62    28    60    1
    63    28    61    1
    64    28    62    1
