@<TRIPOS>MOLECULE
IMPHY002435
 93 98 0 0 0
SMALL
GASTEIGER

@<TRIPOS>ATOM
      1 O           5.4679   -2.3052    0.0000 O.3     1  UNL1       -0.4573
      2 O           4.6077   -0.8019    0.0000 O.2     1  UNL1       -0.2450
      3 C           9.9950   -0.7529    0.0000 C.3     1  UNL1       -0.0194
      4 C           9.1290   -0.2529    0.0000 C.3     1  UNL1       -0.0257
      5 C           8.2190   -0.7597    0.0000 C.3     1  UNL1       -0.0249
      6 C          10.8610   -0.2529    0.0000 C.3     1  UNL1       -0.0051
      7 C           8.2109   -1.8013    0.0000 C.3     1  UNL1       -0.0268
      8 C          10.0110   -1.7944    0.0000 C.3     1  UNL1       -0.0463
      9 C          10.8610    0.7471    0.0000 C.2     1  UNL1       -0.0634
     10 C           9.1130   -2.3221    0.0000 C.3     1  UNL1       -0.0486
     11 C           7.2755   -2.3510    0.0000 C.3     1  UNL1        0.0055
     12 C          11.7550    1.2818    0.0000 C.3     1  UNL1       -0.0135
     13 C          12.6610    0.7680    0.0000 C.3     1  UNL1       -0.0255
     14 C          11.7550   -0.7875    0.0000 C.3     1  UNL1       -0.0429
     15 C           9.1290    0.7471    0.0000 C.3     1  UNL1       -0.0306
     16 C           7.2921   -0.1956    0.0000 C.3     1  UNL1       -0.0437
     17 C          12.6610   -0.2737    0.0000 C.3     1  UNL1       -0.0463
     18 C          10.6378   -1.5189    0.0000 C.3     1  UNL1       -0.0585
     19 C           6.3359   -1.8085    0.0000 C.3     1  UNL1        0.1088
     20 C           9.9950    1.2471    0.0000 C.2     1  UNL1       -0.0836
     21 C           8.2267    0.2403    0.0000 C.3     1  UNL1       -0.0590
     22 C           6.3442   -0.7236    0.0000 C.3     1  UNL1       -0.0146
     23 C          11.2031   -1.1925    0.0000 C.3     1  UNL1       -0.0553
     24 C          11.7299    2.3665    0.0000 C.3     1  UNL1       -0.0408
     25 C          13.6048    1.3032    0.0000 C.3     1  UNL1       -0.0466
     26 C          12.6610    2.9234    0.0000 C.3     1  UNL1       -0.0343
     27 C          13.6048    2.3882    0.0000 C.3     1  UNL1       -0.0473
     28 C           6.7788   -3.2190    0.0000 C.3     1  UNL1       -0.0562
     29 C           7.7788   -3.2151    0.0000 C.3     1  UNL1       -0.0562
     30 C          13.5309    0.2746    0.0000 C.3     1  UNL1       -0.0590
     31 C          13.1510    3.7952    0.0000 C.3     1  UNL1       -0.0598
     32 C          12.1510    3.7836    0.0000 C.3     1  UNL1       -0.0598
     33 C           4.6038   -1.8019    0.0000 C.2     1  UNL1        0.3395
     34 C           3.7359   -2.2985    0.0000 C.ar    1  UNL1        0.0590
     35 C           2.8718   -1.7952    0.0000 C.ar    1  UNL1       -0.0478
     36 C           3.7320   -3.2985    0.0000 C.ar    1  UNL1       -0.0478
     37 C           2.0038   -2.2918    0.0000 C.ar    1  UNL1       -0.0610
     38 C           2.8641   -3.7952    0.0000 C.ar    1  UNL1       -0.0610
     39 C           2.0000   -3.2918    0.0000 C.ar    1  UNL1       -0.0617
     40 H           9.8651    0.1721    0.0000 H       1  UNL1        0.0315
     41 H           8.2142   -2.6513    0.0000 H       1  UNL1        0.0312
     42 H          10.2291   -2.3748    0.0000 H       1  UNL1        0.0271
     43 H          10.6202   -1.6789    0.0000 H       1  UNL1        0.0271
     44 H           8.7157   -2.7981    0.0000 H       1  UNL1        0.0268
     45 H           9.5140   -2.7950    0.0000 H       1  UNL1        0.0268
     46 H          12.4844    1.7181    0.0000 H       1  UNL1        0.0351
     47 H          11.3504   -1.2573    0.0000 H       1  UNL1        0.0274
     48 H          12.1486   -1.2665    0.0000 H       1  UNL1        0.0274
     49 H           8.9169    1.3297    0.0000 H       1  UNL1        0.0310
     50 H           8.5184    0.6395    0.0000 H       1  UNL1        0.0310
     51 H           7.7003    0.2710    0.0000 H       1  UNL1        0.0272
     52 H           6.9022    0.2864    0.0000 H       1  UNL1        0.0272
     53 H          12.8701   -0.8574    0.0000 H       1  UNL1        0.0271
     54 H          13.2719   -0.1676    0.0000 H       1  UNL1        0.0271
     55 H          10.1628   -1.9174    0.0000 H       1  UNL1        0.0235
     56 H          11.0363   -1.9939    0.0000 H       1  UNL1        0.0235
     57 H          11.1127   -1.1204    0.0000 H       1  UNL1        0.0235
     58 H           6.3347   -2.4285    0.0000 H       1  UNL1        0.0739
     59 H           9.9950    1.8671    0.0000 H       1  UNL1        0.0572
     60 H           8.8466    0.2355    0.0000 H       1  UNL1        0.0235
     61 H           8.2314    0.8602    0.0000 H       1  UNL1        0.0235
     62 H           7.6067    0.2450    0.0000 H       1  UNL1        0.0235
     63 H           6.1397   -0.1383    0.0000 H       1  UNL1        0.0301
     64 H           5.7326   -0.8250    0.0000 H       1  UNL1        0.0301
     65 H          10.6205   -1.4046    0.0000 H       1  UNL1        0.0238
     66 H          11.4152   -1.7751    0.0000 H       1  UNL1        0.0238
     67 H          11.7857   -0.9804    0.0000 H       1  UNL1        0.0238
     68 H          11.5074    2.9452    0.0000 H       1  UNL1        0.0276
     69 H          11.1216    2.2463    0.0000 H       1  UNL1        0.0276
     70 H          13.8139    0.7195    0.0000 H       1  UNL1        0.0271
     71 H          14.2157    1.4093    0.0000 H       1  UNL1        0.0271
     72 H          14.2157    2.2821    0.0000 H       1  UNL1        0.0271
     73 H          13.8139    2.9719    0.0000 H       1  UNL1        0.0271
     74 H           6.2407   -2.9110    0.0000 H       1  UNL1        0.0236
     75 H           6.4709   -3.7571    0.0000 H       1  UNL1        0.0236
     76 H           7.2431   -3.5272    0.0000 H       1  UNL1        0.0236
     77 H           8.0909   -3.7509    0.0000 H       1  UNL1        0.0236
     78 H           8.3146   -2.9031    0.0000 H       1  UNL1        0.0236
     79 H           7.3170   -3.5269    0.0000 H       1  UNL1        0.0236
     80 H          13.2250   -0.2647    0.0000 H       1  UNL1        0.0235
     81 H          14.0702   -0.0312    0.0000 H       1  UNL1        0.0235
     82 H          13.8367    0.8140    0.0000 H       1  UNL1        0.0235
     83 H          13.6915    3.4914    0.0000 H       1  UNL1        0.0235
     84 H          13.4547    4.3356    0.0000 H       1  UNL1        0.0235
     85 H          12.6844    4.0998    0.0000 H       1  UNL1        0.0235
     86 H          11.8349    4.3169    0.0000 H       1  UNL1        0.0235
     87 H          11.6177    3.4674    0.0000 H       1  UNL1        0.0235
     88 H          12.6105    4.0989    0.0000 H       1  UNL1        0.0235
     89 H           2.8742   -1.1752    0.0000 H       1  UNL1        0.0626
     90 H           4.2678   -3.6106    0.0000 H       1  UNL1        0.0626
     91 H           1.4681   -1.9798    0.0000 H       1  UNL1        0.0618
     92 H           2.8617   -4.4152    0.0000 H       1  UNL1        0.0618
     93 H           1.4619   -3.5998    0.0000 H       1  UNL1        0.0618
@<TRIPOS>BOND
     1    19     1    1
     2     1    33    1
     3     2    33    2
     4     3     4    1
     5     3     6    1
     6     3     8    1
     7     3    18    1
     8     4     5    1
     9     4    15    1
    10     4    40    1
    11     5     7    1
    12     5    16    1
    13     5    21    1
    14     6     9    1
    15     6    14    1
    16     6    23    1
    17     7    10    1
    18     7    11    1
    19     7    41    1
    20     8    10    1
    21     8    42    1
    22     8    43    1
    23     9    12    1
    24     9    20    2
    25    10    44    1
    26    10    45    1
    27    11    19    1
    28    11    28    1
    29    11    29    1
    30    12    13    1
    31    12    24    1
    32    12    46    1
    33    13    17    1
    34    13    25    1
    35    13    30    1
    36    14    17    1
    37    14    47    1
    38    14    48    1
    39    15    20    1
    40    15    49    1
    41    15    50    1
    42    16    22    1
    43    16    51    1
    44    16    52    1
    45    17    53    1
    46    17    54    1
    47    18    55    1
    48    18    56    1
    49    18    57    1
    50    19    22    1
    51    19    58    1
    52    20    59    1
    53    21    60    1
    54    21    61    1
    55    21    62    1
    56    22    63    1
    57    22    64    1
    58    23    65    1
    59    23    66    1
    60    23    67    1
    61    24    26    1
    62    24    68    1
    63    24    69    1
    64    25    27    1
    65    25    70    1
    66    25    71    1
    67    26    27    1
    68    26    31    1
    69    26    32    1
    70    27    72    1
    71    27    73    1
    72    28    74    1
    73    28    75    1
    74    28    79    1
    75    29    76    1
    76    29    77    1
    77    29    78    1
    78    30    80    1
    79    30    81    1
    80    30    82    1
    81    31    83    1
    82    31    84    1
    83    31    88    1
    84    32    85    1
    85    32    86    1
    86    32    87    1
    87    33    34    1
    88    34    35   ar
    89    34    36   ar
    90    35    37   ar
    91    35    89    1
    92    36    38   ar
    93    36    90    1
    94    37    39   ar
    95    37    91    1
    96    38    39   ar
    97    38    92    1
    98    39    93    1
