@<TRIPOS>MOLECULE
IMPHY011058
 34 34 0 0 0
SMALL
GASTEIGER

@<TRIPOS>ATOM
      1 O           3.5000    1.5000    0.0000 O.3     1  UNL1       -0.4577
      2 O           2.0000    0.6340    0.0000 O.2     1  UNL1       -0.2511
      3 C           4.0000    0.6340    0.0000 C.3     1  UNL1        0.1195
      4 C           4.5000    1.5000    0.0000 C.3     1  UNL1       -0.0063
      5 C           3.1340    0.1340    0.0000 C.3     1  UNL1       -0.0086
      6 C           4.8660    0.1340    0.0000 C.3     1  UNL1        0.0059
      7 C           3.1340   -0.8660    0.0000 C.3     1  UNL1       -0.0284
      8 C           4.0000   -1.3660    0.0000 C.2     1  UNL1       -0.0763
      9 C           4.8660   -0.8660    0.0000 C.2     1  UNL1       -0.0813
     10 C           5.5000    1.5000    0.0000 C.3     1  UNL1       -0.0590
     11 C           4.0000    2.3660    0.0000 C.3     1  UNL1       -0.0590
     12 C           4.0000   -2.3660    0.0000 C.3     1  UNL1       -0.0438
     13 C           2.5000    1.5000    0.0000 C.2     1  UNL1        0.3045
     14 C           2.0000    2.3660    0.0000 C.3     1  UNL1        0.0333
     15 H           4.8100    0.9631    0.0000 H       1  UNL1        0.0334
     16 H           2.9219    0.7166    0.0000 H       1  UNL1        0.0307
     17 H           2.5234    0.0263    0.0000 H       1  UNL1        0.0307
     18 H           5.4766    0.0263    0.0000 H       1  UNL1        0.0346
     19 H           5.0781    0.7166    0.0000 H       1  UNL1        0.0346
     20 H           2.5234   -0.7584    0.0000 H       1  UNL1        0.0311
     21 H           2.9219   -1.4486    0.0000 H       1  UNL1        0.0311
     22 H           5.4030   -1.1760    0.0000 H       1  UNL1        0.0573
     23 H           5.5000    0.8800    0.0000 H       1  UNL1        0.0234
     24 H           6.1200    1.5000    0.0000 H       1  UNL1        0.0234
     25 H           5.5000    2.1200    0.0000 H       1  UNL1        0.0234
     26 H           4.5369    2.6760    0.0000 H       1  UNL1        0.0234
     27 H           3.6900    2.9030    0.0000 H       1  UNL1        0.0234
     28 H           3.4631    2.0560    0.0000 H       1  UNL1        0.0234
     29 H           3.3800   -2.3660    0.0000 H       1  UNL1        0.0274
     30 H           4.0000   -2.9860    0.0000 H       1  UNL1        0.0274
     31 H           4.6200   -2.3660    0.0000 H       1  UNL1        0.0274
     32 H           2.5369    2.6760    0.0000 H       1  UNL1        0.0342
     33 H           1.6900    2.9030    0.0000 H       1  UNL1        0.0342
     34 H           1.4631    2.0560    0.0000 H       1  UNL1        0.0342
@<TRIPOS>BOND
     1     1     3    1
     2     1    13    1
     3     2    13    2
     4     3     4    1
     5     3     5    1
     6     3     6    1
     7     4    10    1
     8     4    11    1
     9     4    15    1
    10     5     7    1
    11     5    16    1
    12     5    17    1
    13     6     9    1
    14     6    18    1
    15     6    19    1
    16     7     8    1
    17     7    20    1
    18     7    21    1
    19     8     9    2
    20     8    12    1
    21     9    22    1
    22    10    23    1
    23    10    24    1
    24    10    25    1
    25    11    26    1
    26    11    27    1
    27    11    28    1
    28    12    29    1
    29    12    30    1
    30    12    31    1
    31    13    14    1
    32    14    32    1
    33    14    33    1
    34    14    34    1
