@<TRIPOS>MOLECULE
IMPHY014608
 51 55 0 0 0
SMALL
GASTEIGER

@<TRIPOS>ATOM
      1 O           4.2057    1.5610    0.0000 O.3     1  UNL1       -0.3700
      2 O           2.5650   -0.9676    0.0000 O.3     1  UNL1       -0.4144
      3 N           7.4666    0.4852    0.0000 N.3     1  UNL1       -0.2979
      4 N           3.5620   -1.0444    0.0000 N.ar    1  UNL1       -0.1839
      5 C           6.0534    1.5610    0.0000 C.3     1  UNL1        0.0050
      6 C           6.6747    2.3970    0.0000 C.3     1  UNL1       -0.0096
      7 C           6.4361    0.6371    0.0000 C.3     1  UNL1        0.0199
      8 C           4.7408    2.3403    0.0000 C.3     1  UNL1       -0.0140
      9 C           3.8230    0.6371    0.0000 C.3     1  UNL1        0.1026
     10 C           5.1296    1.9436    0.0000 C.3     1  UNL1        0.0533
     11 C           6.0534   -0.2868    0.0000 C.3     1  UNL1       -0.0092
     12 C           7.7084    2.2690    0.0000 C.2     1  UNL1       -0.0562
     13 C           8.1071    1.3067    0.0000 C.3     1  UNL1        0.0203
     14 C           4.2057   -0.2868    0.0000 C.ar    1  UNL1        0.0907
     15 C           5.1296   -0.6695    0.0000 C.ar    1  UNL1       -0.0115
     16 C           5.0490   -1.6603    0.0000 C.ar    1  UNL1        0.0068
     17 C           7.8386   -0.4430    0.0000 C.3     1  UNL1       -0.0121
     18 C           8.3142    3.0647    0.0000 C.2     1  UNL1       -0.0864
     19 C           4.0822   -1.8915    0.0000 C.ar    1  UNL1        0.0880
     20 C           5.7726   -2.4009    0.0000 C.ar    1  UNL1       -0.0522
     21 C           9.3061    2.9380    0.0000 C.3     1  UNL1       -0.0465
     22 C           3.7720   -2.8794    0.0000 C.ar    1  UNL1       -0.0343
     23 C           5.4853   -3.3958    0.0000 C.ar    1  UNL1       -0.0611
     24 C           4.4782   -3.6366    0.0000 C.ar    1  UNL1       -0.0597
     25 C           2.0000   -1.7928    0.0000 C.3     1  UNL1        0.1052
     26 H           5.6150    1.1226    0.0000 H       1  UNL1        0.0344
     27 H           6.7146    3.2461    0.0000 H       1  UNL1        0.0351
     28 H           6.7614   -0.1482    0.0000 H       1  UNL1        0.0469
     29 H           4.8305    2.9538    0.0000 H       1  UNL1        0.0300
     30 H           4.1522    2.5351    0.0000 H       1  UNL1        0.0300
     31 H           2.9741    0.6802    0.0000 H       1  UNL1        0.0662
     32 H           5.5070    2.4355    0.0000 H       1  UNL1        0.0563
     33 H           4.7521    2.4355    0.0000 H       1  UNL1        0.0563
     34 H           6.1344   -0.9015    0.0000 H       1  UNL1        0.0329
     35 H           6.6681   -0.3677    0.0000 H       1  UNL1        0.0329
     36 H           8.5236    0.8474    0.0000 H       1  UNL1        0.0473
     37 H           8.6308    1.6385    0.0000 H       1  UNL1        0.0473
     38 H           7.2631   -0.6737    0.0000 H       1  UNL1        0.0391
     39 H           8.0692   -1.0185    0.0000 H       1  UNL1        0.0391
     40 H           8.4141   -0.2124    0.0000 H       1  UNL1        0.0391
     41 H           8.0747    3.6366    0.0000 H       1  UNL1        0.0569
     42 H           6.3739   -2.2498    0.0000 H       1  UNL1        0.0624
     43 H           9.2275    2.3230    0.0000 H       1  UNL1        0.0272
     44 H           9.9211    2.8595    0.0000 H       1  UNL1        0.0272
     45 H           9.3846    3.5530    0.0000 H       1  UNL1        0.0272
     46 H           3.1673   -3.0166    0.0000 H       1  UNL1        0.0639
     47 H           5.9134   -3.8442    0.0000 H       1  UNL1        0.0618
     48 H           4.2994   -4.2302    0.0000 H       1  UNL1        0.0618
     49 H           1.4884   -1.4425    0.0000 H       1  UNL1        0.0686
     50 H           1.6497   -2.3043    0.0000 H       1  UNL1        0.0686
     51 H           2.5116   -2.1430    0.0000 H       1  UNL1        0.0686
@<TRIPOS>BOND
     1     1     9    1
     2     1    10    1
     3     2     4    1
     4     2    25    1
     5     3     7    1
     6     3    13    1
     7     3    17    1
     8     4    14   ar
     9     4    19   ar
    10     5     6    1
    11     5     7    1
    12     5    10    1
    13     5    26    1
    14     6     8    1
    15     6    12    1
    16     6    27    1
    17     7    11    1
    18     7    28    1
    19     8     9    1
    20     8    29    1
    21     8    30    1
    22     9    14    1
    23     9    31    1
    24    10    32    1
    25    10    33    1
    26    11    15    1
    27    11    34    1
    28    11    35    1
    29    12    13    1
    30    12    18    2
    31    13    36    1
    32    13    37    1
    33    14    15   ar
    34    15    16   ar
    35    16    19   ar
    36    16    20   ar
    37    17    38    1
    38    17    39    1
    39    17    40    1
    40    18    21    1
    41    18    41    1
    42    19    22   ar
    43    20    23   ar
    44    20    42    1
    45    21    43    1
    46    21    44    1
    47    21    45    1
    48    22    24   ar
    49    22    46    1
    50    23    24   ar
    51    23    47    1
    52    24    48    1
    53    25    49    1
    54    25    50    1
    55    25    51    1
