@<TRIPOS>MOLECULE
IMPHY007455
 46 49 0 0 0
SMALL
GASTEIGER

@<TRIPOS>ATOM
      1 O           2.5405   -0.7573    0.0000 O.3     1  UNL1       -0.3882
      2 O           2.5247   -2.8055    0.0000 O.3     1  UNL1       -0.3732
      3 O           2.5247    2.2847    0.0000 O.3     1  UNL1       -0.4914
      4 O           4.2986    3.3088    0.0000 O.3     1  UNL1       -0.4914
      5 N           6.0427   -0.7604    0.0000 N.3     1  UNL1       -0.2906
      6 C           5.1767   -1.2604    0.0000 C.3     1  UNL1        0.0414
      7 C           4.3107   -0.7604    0.0000 C.3     1  UNL1        0.0327
      8 C           5.1928   -2.3019    0.0000 C.2     1  UNL1       -0.0521
      9 C           3.4007   -1.2672    0.0000 C.3     1  UNL1        0.0934
     10 C           6.6606   -1.5388    0.0000 C.3     1  UNL1        0.0035
     11 C           6.1808   -2.4091    0.0000 C.3     1  UNL1       -0.0173
     12 C           4.3107    0.2396    0.0000 C.ar    1  UNL1       -0.0319
     13 C           6.0427    0.2396    0.0000 C.3     1  UNL1        0.0250
     14 C           3.3926   -2.3088    0.0000 C.3     1  UNL1        0.1032
     15 C           4.2947   -2.8297    0.0000 C.2     1  UNL1       -0.0524
     16 C           5.1767    0.7396    0.0000 C.ar    1  UNL1       -0.0261
     17 C           3.4007    0.7464    0.0000 C.ar    1  UNL1       -0.0124
     18 C           5.1928    1.7811    0.0000 C.ar    1  UNL1       -0.0116
     19 C           3.3926    1.7880    0.0000 C.ar    1  UNL1        0.1618
     20 C           4.2947    2.3088    0.0000 C.ar    1  UNL1        0.1618
     21 C           2.5208   -3.8055    0.0000 C.3     1  UNL1        0.0373
     22 C           2.5208    3.2847    0.0000 C.3     1  UNL1        0.0790
     23 C           5.1665    3.8055    0.0000 C.3     1  UNL1        0.0790
     24 H           4.6422   -1.5745    0.0000 H       1  UNL1        0.0516
     25 H           4.8476   -0.4504    0.0000 H       1  UNL1        0.0393
     26 H           2.8608   -1.5721    0.0000 H       1  UNL1        0.0629
     27 H           7.1595   -1.9070    0.0000 H       1  UNL1        0.0430
     28 H           7.0913   -1.0927    0.0000 H       1  UNL1        0.0430
     29 H           6.0334   -3.0113    0.0000 H       1  UNL1        0.0323
     30 H           6.7584   -2.6344    0.0000 H       1  UNL1        0.0323
     31 H           6.6533    0.1319    0.0000 H       1  UNL1        0.0476
     32 H           6.2548    0.8222    0.0000 H       1  UNL1        0.0476
     33 H           3.3914   -2.9288    0.0000 H       1  UNL1        0.0666
     34 H           4.2971   -3.4497    0.0000 H       1  UNL1        0.0598
     35 H           2.8674    0.4302    0.0000 H       1  UNL1        0.0658
     36 H           5.7332    2.0849    0.0000 H       1  UNL1        0.0658
     37 H           2.0000   -1.0610    0.0000 H       1  UNL1        0.2099
     38 H           1.9008   -3.8031    0.0000 H       1  UNL1        0.0524
     39 H           2.5184   -4.4255    0.0000 H       1  UNL1        0.0524
     40 H           3.1408   -3.8079    0.0000 H       1  UNL1        0.0524
     41 H           3.1408    3.2871    0.0000 H       1  UNL1        0.0660
     42 H           2.5184    3.9047    0.0000 H       1  UNL1        0.0660
     43 H           1.9008    3.2823    0.0000 H       1  UNL1        0.0660
     44 H           5.4744    3.2674    0.0000 H       1  UNL1        0.0660
     45 H           5.7046    4.1134    0.0000 H       1  UNL1        0.0660
     46 H           4.8586    4.3436    0.0000 H       1  UNL1        0.0660
@<TRIPOS>BOND
     1     1     9    1
     2     1    37    1
     3     2    14    1
     4     2    21    1
     5     3    19    1
     6     3    22    1
     7     4    20    1
     8     4    23    1
     9     5     6    1
    10     5    10    1
    11     5    13    1
    12     6     7    1
    13     6     8    1
    14     6    24    1
    15     7     9    1
    16     7    12    1
    17     7    25    1
    18     8    11    1
    19     8    15    2
    20     9    14    1
    21     9    26    1
    22    10    11    1
    23    10    27    1
    24    10    28    1
    25    11    29    1
    26    11    30    1
    27    12    16   ar
    28    12    17   ar
    29    13    16    1
    30    13    31    1
    31    13    32    1
    32    14    15    1
    33    14    33    1
    34    15    34    1
    35    16    18   ar
    36    17    19   ar
    37    17    35    1
    38    18    20   ar
    39    18    36    1
    40    19    20   ar
    41    21    38    1
    42    21    39    1
    43    21    40    1
    44    22    41    1
    45    22    42    1
    46    22    43    1
    47    23    44    1
    48    23    45    1
    49    23    46    1
