@<TRIPOS>MOLECULE
IMPHY009462
 24 26 0 0 0
SMALL
GASTEIGER

@<TRIPOS>ATOM
      1 O           6.9675   -1.2385    0.0000 O.3     1  UNL1       -0.3650
      2 O           1.5948   -1.2441    0.0000 O.3     1  UNL1       -0.3917
      3 N           5.0873    1.1286    0.0000 N.3     1  UNL1       -0.2942
      4 C           6.3243   -0.4723    0.0000 C.3     1  UNL1        0.1023
      5 C           5.9822   -1.4120    0.0000 C.3     1  UNL1        0.1023
      6 C           4.3507    0.1460    0.0000 C.3     1  UNL1        0.0415
      7 C           4.6095   -0.8200    0.0000 C.3     1  UNL1        0.0415
      8 C           2.9191   -0.0517    0.0000 C.3     1  UNL1       -0.0086
      9 C           3.3379   -1.6146    0.0000 C.3     1  UNL1       -0.0086
     10 C           2.5607   -0.9853    0.0000 C.3     1  UNL1        0.0583
     11 C           5.5873    1.9946    0.0000 C.3     1  UNL1       -0.0120
     12 H           6.5363    0.1103    0.0000 H       1  UNL1        0.0638
     13 H           5.7702   -1.9946    0.0000 H       1  UNL1        0.0638
     14 H           4.1307    0.9670    0.0000 H       1  UNL1        0.0490
     15 H           4.8295   -1.6410    0.0000 H       1  UNL1        0.0490
     16 H           2.3113    0.0706    0.0000 H       1  UNL1        0.0306
     17 H           2.9381    0.5680    0.0000 H       1  UNL1        0.0306
     18 H           3.7224   -2.1009    0.0000 H       1  UNL1        0.0306
     19 H           2.8969   -2.0505    0.0000 H       1  UNL1        0.0306
     20 H           2.1458   -0.5245    0.0000 H       1  UNL1        0.0594
     21 H           5.0504    2.3046    0.0000 H       1  UNL1        0.0391
     22 H           5.8973    2.5315    0.0000 H       1  UNL1        0.0391
     23 H           6.1243    1.6846    0.0000 H       1  UNL1        0.0391
     24 H           1.1564   -0.8057    0.0000 H       1  UNL1        0.2098
@<TRIPOS>BOND
     1     4     1    1
     2     5     1    1
     3     2    10    1
     4     2    24    1
     5     3     6    1
     6     3     7    1
     7     3    11    1
     8     4     5    1
     9     4     6    1
    10     4    12    1
    11     5     7    1
    12     5    13    1
    13     6     8    1
    14     6    14    1
    15     7     9    1
    16     7    15    1
    17     8    10    1
    18     8    16    1
    19     8    17    1
    20     9    10    1
    21     9    18    1
    22     9    19    1
    23    10    20    1
    24    11    21    1
    25    11    22    1
    26    11    23    1
