@<TRIPOS>MOLECULE
IMPHY005981
 98 100 0 0 0
SMALL
GASTEIGER

@<TRIPOS>ATOM
      1 O           4.6783   -4.4518    0.0000 O.3     1  UNL1       -0.3578
      2 O          21.2619    3.2811    0.0000 O.3     1  UNL1       -0.3914
      3 C           3.7320   -4.1471    0.0000 C.3     1  UNL1        0.0894
      4 C           2.8660   -2.6471    0.0000 C.3     1  UNL1       -0.0111
      5 C           3.7320   -3.1471    0.0000 C.2     1  UNL1       -0.0340
      6 C           2.8660   -4.6471    0.0000 C.3     1  UNL1       -0.0200
      7 C           2.0000   -3.1471    0.0000 C.3     1  UNL1       -0.0440
      8 C           2.0000   -4.1471    0.0000 C.3     1  UNL1       -0.0494
      9 C           4.6783   -2.8424    0.0000 C.2     1  UNL1       -0.0491
     10 C           5.2619   -3.6471    0.0000 C.3     1  UNL1        0.0994
     11 C           3.7320   -5.1471    0.0000 C.3     1  UNL1       -0.0319
     12 C           2.3660   -1.7811    0.0000 C.3     1  UNL1       -0.0560
     13 C           3.3660   -1.7811    0.0000 C.3     1  UNL1       -0.0560
     14 C           6.2619   -3.6471    0.0000 C.2     1  UNL1       -0.0404
     15 C           6.7619   -4.5131    0.0000 C.3     1  UNL1       -0.0408
     16 C          18.7619    4.1471    0.0000 C.3     1  UNL1       -0.0076
     17 C           6.7619   -2.7811    0.0000 C.2     1  UNL1       -0.0600
     18 C          19.7619    4.1471    0.0000 C.3     1  UNL1       -0.0174
     19 C          20.2619    3.2811    0.0000 C.3     1  UNL1        0.0597
     20 C          18.2619    3.2811    0.0000 C.2     1  UNL1       -0.0426
     21 C          19.7619    2.4151    0.0000 C.3     1  UNL1       -0.0053
     22 C          18.7619    2.4151    0.0000 C.2     1  UNL1       -0.0665
     23 C          18.7619    5.1471    0.0000 C.3     1  UNL1       -0.0557
     24 C          17.8959    4.6471    0.0000 C.3     1  UNL1       -0.0557
     25 C           7.7619   -2.7811    0.0000 C.2     1  UNL1       -0.0615
     26 C          17.2619    3.2811    0.0000 C.2     1  UNL1       -0.0579
     27 C          18.2619    1.5490    0.0000 C.3     1  UNL1       -0.0431
     28 C           8.2619   -1.9151    0.0000 C.2     1  UNL1       -0.0588
     29 C          16.7619    2.4151    0.0000 C.2     1  UNL1       -0.0586
     30 C           9.2619   -1.9151    0.0000 C.2     1  UNL1       -0.0504
     31 C          15.7619    2.4151    0.0000 C.2     1  UNL1       -0.0504
     32 C           9.7619   -2.7811    0.0000 C.3     1  UNL1       -0.0397
     33 C          15.2619    3.2811    0.0000 C.3     1  UNL1       -0.0397
     34 C           9.7619   -1.0490    0.0000 C.2     1  UNL1       -0.0588
     35 C          15.2619    1.5490    0.0000 C.2     1  UNL1       -0.0588
     36 C          14.2619    1.5490    0.0000 C.2     1  UNL1       -0.0613
     37 C          10.7619   -1.0490    0.0000 C.2     1  UNL1       -0.0615
     38 C          13.7619    0.6830    0.0000 C.2     1  UNL1       -0.0588
     39 C          11.2619   -0.1830    0.0000 C.2     1  UNL1       -0.0615
     40 C          12.7619    0.6830    0.0000 C.2     1  UNL1       -0.0504
     41 C          12.2619   -0.1830    0.0000 C.2     1  UNL1       -0.0588
     42 C          12.2619    1.5490    0.0000 C.3     1  UNL1       -0.0397
     43 H           2.4675   -5.1221    0.0000 H       1  UNL1        0.0296
     44 H           3.2646   -5.1221    0.0000 H       1  UNL1        0.0296
     45 H           1.7880   -2.5645    0.0000 H       1  UNL1        0.0274
     46 H           1.3894   -3.2548    0.0000 H       1  UNL1        0.0274
     47 H           1.3894   -4.0395    0.0000 H       1  UNL1        0.0267
     48 H           1.7880   -4.7297    0.0000 H       1  UNL1        0.0267
     49 H           4.8709   -2.2531    0.0000 H       1  UNL1        0.0601
     50 H           5.5436   -4.1994    0.0000 H       1  UNL1        0.0688
     51 H           3.1120   -5.1471    0.0000 H       1  UNL1        0.0261
     52 H           3.7320   -5.7671    0.0000 H       1  UNL1        0.0261
     53 H           4.3520   -5.1471    0.0000 H       1  UNL1        0.0261
     54 H           2.9030   -1.4711    0.0000 H       1  UNL1        0.0238
     55 H           2.0560   -1.2442    0.0000 H       1  UNL1        0.0238
     56 H           1.8291   -2.0911    0.0000 H       1  UNL1        0.0238
     57 H           3.9030   -2.0911    0.0000 H       1  UNL1        0.0238
     58 H           3.6760   -1.2442    0.0000 H       1  UNL1        0.0238
     59 H           2.8291   -1.4711    0.0000 H       1  UNL1        0.0238
     60 H           6.2249   -4.8231    0.0000 H       1  UNL1        0.0275
     61 H           7.0719   -5.0501    0.0000 H       1  UNL1        0.0275
     62 H           7.2988   -4.2031    0.0000 H       1  UNL1        0.0275
     63 H           6.4519   -2.2442    0.0000 H       1  UNL1        0.0618
     64 H          20.3445    4.3592    0.0000 H       1  UNL1        0.0298
     65 H          19.6542    4.7577    0.0000 H       1  UNL1        0.0298
     66 H          20.5719    2.7442    0.0000 H       1  UNL1        0.0596
     67 H          19.6542    1.8045    0.0000 H       1  UNL1        0.0335
     68 H          20.3445    2.2030    0.0000 H       1  UNL1        0.0335
     69 H          18.2059    5.1840    0.0000 H       1  UNL1        0.0238
     70 H          17.3589    4.9571    0.0000 H       1  UNL1        0.0238
     71 H          17.5859    4.1102    0.0000 H       1  UNL1        0.0238
     72 H          19.3819    5.1471    0.0000 H       1  UNL1        0.0238
     73 H          18.7619    5.7671    0.0000 H       1  UNL1        0.0238
     74 H          18.1419    5.1471    0.0000 H       1  UNL1        0.0238
     75 H           8.0719   -3.3180    0.0000 H       1  UNL1        0.0618
     76 H          16.9519    3.8180    0.0000 H       1  UNL1        0.0621
     77 H          17.7249    1.8590    0.0000 H       1  UNL1        0.0275
     78 H          17.9519    1.0121    0.0000 H       1  UNL1        0.0275
     79 H          18.7988    1.2390    0.0000 H       1  UNL1        0.0275
     80 H          21.5719    3.8180    0.0000 H       1  UNL1        0.2098
     81 H           7.9519   -1.3781    0.0000 H       1  UNL1        0.0620
     82 H          17.0719    1.8781    0.0000 H       1  UNL1        0.0620
     83 H           9.2249   -3.0911    0.0000 H       1  UNL1        0.0278
     84 H          10.0719   -3.3180    0.0000 H       1  UNL1        0.0278
     85 H          10.2988   -2.4711    0.0000 H       1  UNL1        0.0278
     86 H          15.7988    3.5911    0.0000 H       1  UNL1        0.0278
     87 H          14.9519    3.8180    0.0000 H       1  UNL1        0.0278
     88 H          14.7249    2.9711    0.0000 H       1  UNL1        0.0278
     89 H           9.4519   -0.5121    0.0000 H       1  UNL1        0.0620
     90 H          15.5719    1.0121    0.0000 H       1  UNL1        0.0620
     91 H          13.9519    2.0860    0.0000 H       1  UNL1        0.0618
     92 H          11.0719   -1.5860    0.0000 H       1  UNL1        0.0618
     93 H          14.0719    0.1461    0.0000 H       1  UNL1        0.0620
     94 H          10.9519    0.3539    0.0000 H       1  UNL1        0.0618
     95 H          12.5719   -0.7199    0.0000 H       1  UNL1        0.0620
     96 H          12.7988    1.8590    0.0000 H       1  UNL1        0.0278
     97 H          11.9519    2.0860    0.0000 H       1  UNL1        0.0278
     98 H          11.7249    1.2390    0.0000 H       1  UNL1        0.0278
@<TRIPOS>BOND
     1     1     3    1
     2     1    10    1
     3     2    19    1
     4     2    80    1
     5     3     5    1
     6     3     6    1
     7     3    11    1
     8     4     5    1
     9     4     7    1
    10     4    12    1
    11     4    13    1
    12     5     9    2
    13     6     8    1
    14     6    43    1
    15     6    44    1
    16     7     8    1
    17     7    45    1
    18     7    46    1
    19     8    47    1
    20     8    48    1
    21     9    10    1
    22     9    49    1
    23    10    14    1
    24    10    50    1
    25    11    51    1
    26    11    52    1
    27    11    53    1
    28    12    54    1
    29    12    55    1
    30    12    56    1
    31    13    57    1
    32    13    58    1
    33    13    59    1
    34    14    15    1
    35    14    17    2
    36    15    60    1
    37    15    61    1
    38    15    62    1
    39    16    18    1
    40    16    20    1
    41    16    23    1
    42    16    24    1
    43    17    25    1
    44    17    63    1
    45    18    19    1
    46    18    64    1
    47    18    65    1
    48    19    21    1
    49    19    66    1
    50    20    22    2
    51    20    26    1
    52    21    22    1
    53    21    67    1
    54    21    68    1
    55    22    27    1
    56    23    72    1
    57    23    73    1
    58    23    74    1
    59    24    69    1
    60    24    70    1
    61    24    71    1
    62    25    28    2
    63    25    75    1
    64    26    29    2
    65    26    76    1
    66    27    77    1
    67    27    78    1
    68    27    79    1
    69    28    30    1
    70    28    81    1
    71    29    31    1
    72    29    82    1
    73    30    32    1
    74    30    34    2
    75    31    33    1
    76    31    35    2
    77    32    83    1
    78    32    84    1
    79    32    85    1
    80    33    86    1
    81    33    87    1
    82    33    88    1
    83    34    37    1
    84    34    89    1
    85    35    36    1
    86    35    90    1
    87    36    38    2
    88    36    91    1
    89    37    39    2
    90    37    92    1
    91    38    40    1
    92    38    93    1
    93    39    41    1
    94    39    94    1
    95    40    41    2
    96    40    42    1
    97    41    95    1
    98    42    96    1
    99    42    97    1
   100    42    98    1
