@<TRIPOS>MOLECULE
IMPHY005211
 33 35 0 0 0
SMALL
GASTEIGER

@<TRIPOS>ATOM
      1 O           5.3923   -2.2232    0.0000 O.3     1  UNL1       -0.4929
      2 O           5.9721    2.3822    0.0000 O.3     1  UNL1       -0.3833
      3 O           7.9235    2.8206    0.0000 O.3     1  UNL1       -0.3921
      4 N           4.5274    1.0478    0.0000 N.ar    1  UNL1       -0.3526
      5 N           7.0547   -0.0764    0.0000 N.ar    1  UNL1       -0.2515
      6 C           5.3364    0.4600    0.0000 C.ar    1  UNL1        0.0752
      7 C           5.0274   -0.4910    0.0000 C.ar    1  UNL1        0.0524
      8 C           4.0274   -0.4910    0.0000 C.ar    1  UNL1        0.0110
      9 C           3.7183    0.4600    0.0000 C.ar    1  UNL1        0.0476
     10 C           6.3518    0.6923    0.0000 C.ar    1  UNL1        0.0959
     11 C           6.6498    1.6468    0.0000 C.3     1  UNL1        0.1218
     12 C           5.7123   -1.2758    0.0000 C.ar    1  UNL1        0.1478
     13 C           3.3424   -1.2758    0.0000 C.ar    1  UNL1       -0.0519
     14 C           2.7029    0.6923    0.0000 C.ar    1  UNL1       -0.0378
     15 C           6.7328   -1.0671    0.0000 C.ar    1  UNL1        0.0703
     16 C           7.6255    1.8660    0.0000 C.3     1  UNL1        0.0758
     17 C           2.3219   -1.0671    0.0000 C.ar    1  UNL1       -0.0611
     18 C           2.0000   -0.0764    0.0000 C.ar    1  UNL1       -0.0598
     19 C           6.0528   -2.9740    0.0000 C.3     1  UNL1        0.0789
     20 H           4.5274    1.6678    0.0000 H       1  UNL1        0.1660
     21 H           6.8345    2.2387    0.0000 H       1  UNL1        0.0683
     22 H           3.5408   -1.8632    0.0000 H       1  UNL1        0.0624
     23 H           2.5182    1.2841    0.0000 H       1  UNL1        0.0638
     24 H           7.1459   -1.5294    0.0000 H       1  UNL1        0.0867
     25 H           7.6543    1.2467    0.0000 H       1  UNL1        0.0587
     26 H           8.2404    1.7869    0.0000 H       1  UNL1        0.0587
     27 H           1.9088   -1.5294    0.0000 H       1  UNL1        0.0618
     28 H           1.3940    0.0548    0.0000 H       1  UNL1        0.0618
     29 H           6.1569    2.9740    0.0000 H       1  UNL1        0.2104
     30 H           5.5873   -3.3835    0.0000 H       1  UNL1        0.0660
     31 H           6.4623   -3.4395    0.0000 H       1  UNL1        0.0660
     32 H           6.5183   -2.5645    0.0000 H       1  UNL1        0.0660
     33 H           8.5284    2.9565    0.0000 H       1  UNL1        0.2095
@<TRIPOS>BOND
     1     1    12    1
     2     1    19    1
     3     2    11    1
     4     2    29    1
     5     3    16    1
     6     3    33    1
     7     4     6   ar
     8     4     9   ar
     9     4    20    1
    10     5    10   ar
    11     5    15   ar
    12     6     7   ar
    13     6    10   ar
    14     7     8   ar
    15     7    12   ar
    16     8     9   ar
    17     8    13   ar
    18     9    14   ar
    19    10    11    1
    20    11    16    1
    21    11    21    1
    22    12    15   ar
    23    13    17   ar
    24    13    22    1
    25    14    18   ar
    26    14    23    1
    27    15    24    1
    28    16    25    1
    29    16    26    1
    30    17    18   ar
    31    17    27    1
    32    18    28    1
    33    19    30    1
    34    19    31    1
    35    19    32    1
