@<TRIPOS>MOLECULE
IMPHY002918
 32 33 0 0 0
SMALL
GASTEIGER

@<TRIPOS>ATOM
      1 O           2.0000    1.0000    0.0000 O.3     1  UNL1       -0.4914
      2 O           2.0000   -1.0000    0.0000 O.3     1  UNL1       -0.4914
      3 N           6.3981   -0.5208    0.0000 N.3     1  UNL1       -0.3008
      4 C           5.4920    1.0347    0.0000 C.3     1  UNL1       -0.0144
      5 C           6.3981    0.5208    0.0000 C.3     1  UNL1        0.0029
      6 C           5.4920   -1.0347    0.0000 C.3     1  UNL1        0.0241
      7 C           4.5981    0.5000    0.0000 C.ar    1  UNL1       -0.0381
      8 C           4.5981   -0.5000    0.0000 C.ar    1  UNL1       -0.0265
      9 C           3.7320    1.0000    0.0000 C.ar    1  UNL1       -0.0128
     10 C           3.7320   -1.0000    0.0000 C.ar    1  UNL1       -0.0116
     11 C           7.2622   -1.0241    0.0000 C.3     1  UNL1       -0.0124
     12 C           2.8660    0.5000    0.0000 C.ar    1  UNL1        0.1618
     13 C           2.8660   -0.5000    0.0000 C.ar    1  UNL1        0.1618
     14 C           2.0000    2.0000    0.0000 C.3     1  UNL1        0.0790
     15 C           2.0000   -2.0000    0.0000 C.3     1  UNL1        0.0790
     16 H           5.8856    1.5137    0.0000 H       1  UNL1        0.0326
     17 H           5.0874    1.5044    0.0000 H       1  UNL1        0.0326
     18 H           7.0089    0.4147    0.0000 H       1  UNL1        0.0430
     19 H           6.6071    1.1045    0.0000 H       1  UNL1        0.0430
     20 H           5.0874   -1.5044    0.0000 H       1  UNL1        0.0476
     21 H           5.8856   -1.5137    0.0000 H       1  UNL1        0.0476
     22 H           3.7320    1.6200    0.0000 H       1  UNL1        0.0658
     23 H           3.7320   -1.6200    0.0000 H       1  UNL1        0.0658
     24 H           6.9501   -1.5599    0.0000 H       1  UNL1        0.0391
     25 H           7.7979   -1.3362    0.0000 H       1  UNL1        0.0391
     26 H           7.5742   -0.4884    0.0000 H       1  UNL1        0.0391
     27 H           2.6200    2.0000    0.0000 H       1  UNL1        0.0660
     28 H           2.0000    2.6200    0.0000 H       1  UNL1        0.0660
     29 H           1.3800    2.0000    0.0000 H       1  UNL1        0.0660
     30 H           1.3800   -2.0000    0.0000 H       1  UNL1        0.0660
     31 H           2.0000   -2.6200    0.0000 H       1  UNL1        0.0660
     32 H           2.6200   -2.0000    0.0000 H       1  UNL1        0.0660
@<TRIPOS>BOND
     1     1    12    1
     2     1    14    1
     3     2    13    1
     4     2    15    1
     5     3     5    1
     6     3     6    1
     7     3    11    1
     8     4     5    1
     9     4     7    1
    10     4    16    1
    11     4    17    1
    12     5    18    1
    13     5    19    1
    14     6     8    1
    15     6    20    1
    16     6    21    1
    17     7     8   ar
    18     7     9   ar
    19     8    10   ar
    20     9    12   ar
    21     9    22    1
    22    10    13   ar
    23    10    23    1
    24    11    24    1
    25    11    25    1
    26    11    26    1
    27    12    13   ar
    28    14    27    1
    29    14    28    1
    30    14    29    1
    31    15    30    1
    32    15    31    1
    33    15    32    1
