@<TRIPOS>MOLECULE
IMPHY004859
 45 48 0 0 0
SMALL
GASTEIGER

@<TRIPOS>ATOM
      1 O           4.6660    3.9446    0.0000 O.2     1  UNL1       -0.2669
      2 O           6.0746   -3.2003    0.0000 O.3     1  UNL1       -0.4644
      3 O           4.7854   -2.0436    0.0000 O.2     1  UNL1       -0.2449
      4 N           5.5321    2.4446    0.0000 N.ar    1  UNL1       -0.2957
      5 N           4.6660    0.9446    0.0000 N.ar    1  UNL1       -0.2329
      6 N           7.7209   -2.6622    0.0000 N.pl3   1  UNL1       -0.3463
      7 C           6.4783    1.1399    0.0000 C.3     1  UNL1        0.0440
      8 C           7.0619    1.9446    0.0000 C.3     1  UNL1       -0.0211
      9 C           6.4783    2.7493    0.0000 C.3     1  UNL1        0.0287
     10 C           5.5321    1.4446    0.0000 C.ar    1  UNL1        0.1205
     11 C           6.7889    0.1893    0.0000 C.ar    1  UNL1       -0.0361
     12 C           4.6660    2.9446    0.0000 C.ar    1  UNL1        0.2618
     13 C           3.8000    2.4446    0.0000 C.ar    1  UNL1        0.0649
     14 C           3.8000    1.4446    0.0000 C.ar    1  UNL1        0.0782
     15 C           6.1211   -0.5550    0.0000 C.ar    1  UNL1       -0.0421
     16 C           7.7674   -0.0169    0.0000 C.ar    1  UNL1       -0.0561
     17 C           6.4318   -1.5055    0.0000 C.ar    1  UNL1        0.0800
     18 C           8.0781   -0.9674    0.0000 C.ar    1  UNL1       -0.0398
     19 C           7.4103   -1.7117    0.0000 C.ar    1  UNL1        0.0410
     20 C           2.9061    2.9793    0.0000 C.ar    1  UNL1       -0.0474
     21 C           2.9061    0.9099    0.0000 C.ar    1  UNL1       -0.0355
     22 C           2.0000    2.4654    0.0000 C.ar    1  UNL1       -0.0609
     23 C           2.0000    1.4238    0.0000 C.ar    1  UNL1       -0.0597
     24 C           5.7639   -2.2498    0.0000 C.2     1  UNL1        0.3407
     25 C           8.6994   -2.8684    0.0000 C.3     1  UNL1       -0.0024
     26 C           5.4067   -3.9446    0.0000 C.3     1  UNL1        0.0820
     27 H           7.0908    1.0437    0.0000 H       1  UNL1        0.0428
     28 H           7.5228    1.5299    0.0000 H       1  UNL1        0.0292
     29 H           7.5228    2.3593    0.0000 H       1  UNL1        0.0292
     30 H           7.0157    3.0586    0.0000 H       1  UNL1        0.0493
     31 H           6.2272    3.3162    0.0000 H       1  UNL1        0.0493
     32 H           5.5144   -0.4271    0.0000 H       1  UNL1        0.0629
     33 H           8.1815    0.4446    0.0000 H       1  UNL1        0.0621
     34 H           8.6848   -1.0952    0.0000 H       1  UNL1        0.0636
     35 H           2.9132    3.5992    0.0000 H       1  UNL1        0.0626
     36 H           2.9132    0.2900    0.0000 H       1  UNL1        0.0639
     37 H           1.4643    2.7775    0.0000 H       1  UNL1        0.0618
     38 H           1.4643    1.1117    0.0000 H       1  UNL1        0.0618
     39 H           7.3069   -3.1237    0.0000 H       1  UNL1        0.1458
     40 H           8.5716   -3.4751    0.0000 H       1  UNL1        0.0425
     41 H           9.3061   -2.9963    0.0000 H       1  UNL1        0.0425
     42 H           8.8273   -2.2618    0.0000 H       1  UNL1        0.0425
     43 H           4.9453   -3.5305    0.0000 H       1  UNL1        0.0661
     44 H           4.9927   -4.4061    0.0000 H       1  UNL1        0.0661
     45 H           5.8682   -4.3587    0.0000 H       1  UNL1        0.0661
@<TRIPOS>BOND
     1     1    12    2
     2     2    24    1
     3     2    26    1
     4     3    24    2
     5     4     9    1
     6     4    10   ar
     7     4    12   ar
     8     5    10   ar
     9     5    14   ar
    10     6    19    1
    11     6    25    1
    12     6    39    1
    13     7     8    1
    14     7    10    1
    15     7    11    1
    16     7    27    1
    17     8     9    1
    18     8    28    1
    19     8    29    1
    20     9    30    1
    21     9    31    1
    22    11    15   ar
    23    11    16   ar
    24    12    13   ar
    25    13    14   ar
    26    13    20   ar
    27    14    21   ar
    28    15    17   ar
    29    15    32    1
    30    16    18   ar
    31    16    33    1
    32    17    19   ar
    33    17    24    1
    34    18    19   ar
    35    18    34    1
    36    20    22   ar
    37    20    35    1
    38    21    23   ar
    39    21    36    1
    40    22    23   ar
    41    22    37    1
    42    23    38    1
    43    25    40    1
    44    25    41    1
    45    25    42    1
    46    26    43    1
    47    26    44    1
    48    26    45    1
