@<TRIPOS>MOLECULE
IMPHY002662
 36 38 0 0 0
SMALL
GASTEIGER

@<TRIPOS>ATOM
      1 O           5.4239    1.7051    0.0000 O.3     1  UNL1       -0.4879
      2 O           8.1955    2.0878    0.0000 O.3     1  UNL1       -0.3776
      3 O           7.0456    3.4223    0.0000 O.2     1  UNL1       -0.2978
      4 O           8.7754   -2.4034    0.0000 O.3     1  UNL1       -0.5033
      5 O           6.8830   -3.1873    0.0000 O.3     1  UNL1       -0.5033
      6 O           2.3793    0.2459    0.0000 O.3     1  UNL1       -0.5066
      7 C           7.2717    1.7051    0.0000 C.3     1  UNL1        0.1580
      8 C           7.6543    0.7812    0.0000 C.3     1  UNL1        0.0119
      9 C           7.2717   -0.1427    0.0000 C.ar    1  UNL1       -0.0326
     10 C           6.3478    2.0878    0.0000 C.3     1  UNL1        0.1252
     11 C           6.3478   -0.5254    0.0000 C.ar    1  UNL1       -0.0074
     12 C           5.4239   -0.1427    0.0000 C.ar    1  UNL1        0.0244
     13 C           5.0412    0.7812    0.0000 C.ar    1  UNL1        0.1318
     14 C           8.1077   -0.7640    0.0000 C.ar    1  UNL1       -0.0127
     15 C           7.6543    2.6290    0.0000 C.2     1  UNL1        0.1553
     16 C           6.1959   -1.5559    0.0000 C.ar    1  UNL1       -0.0084
     17 C           7.9797   -1.7977    0.0000 C.ar    1  UNL1        0.1585
     18 C           4.8026   -0.9787    0.0000 C.ar    1  UNL1       -0.0471
     19 C           7.0174   -2.1963    0.0000 C.ar    1  UNL1        0.1588
     20 C           4.0107    0.9331    0.0000 C.ar    1  UNL1        0.0221
     21 C           3.7689   -0.8507    0.0000 C.ar    1  UNL1       -0.0194
     22 C           3.3703    0.1116    0.0000 C.ar    1  UNL1        0.1204
     23 H           8.1462    0.4038    0.0000 H       1  UNL1        0.0347
     24 H           8.1462    1.1586    0.0000 H       1  UNL1        0.0347
     25 H           6.7252    2.5796    0.0000 H       1  UNL1        0.0730
     26 H           5.9704    2.5796    0.0000 H       1  UNL1        0.0730
     27 H           8.6777   -0.5201    0.0000 H       1  UNL1        0.0658
     28 H           8.2690    2.7099    0.0000 H       1  UNL1        0.1058
     29 H           5.6204   -1.7865    0.0000 H       1  UNL1        0.0661
     30 H           8.6874    1.7103    0.0000 H       1  UNL1        0.2109
     31 H           5.0465   -1.5488    0.0000 H       1  UNL1        0.0626
     32 H           3.7801    1.5086    0.0000 H       1  UNL1        0.0691
     33 H           3.3933   -1.3441    0.0000 H       1  UNL1        0.0654
     34 H           9.3473   -2.1639    0.0000 H       1  UNL1        0.2923
     35 H           6.3093   -3.4223    0.0000 H       1  UNL1        0.2923
     36 H           2.0000   -0.2445    0.0000 H       1  UNL1        0.2921
@<TRIPOS>BOND
     1     1    10    1
     2     1    13    1
     3     7     2    1
     4     2    30    1
     5     3    15    2
     6     4    17    1
     7     4    34    1
     8     5    19    1
     9     5    35    1
    10     6    22    1
    11     6    36    1
    12     7     8    1
    13     7    10    1
    14     7    15    1
    15     8     9    1
    16     8    23    1
    17     8    24    1
    18     9    11   ar
    19     9    14   ar
    20    10    25    1
    21    10    26    1
    22    11    12    1
    23    11    16   ar
    24    12    13   ar
    25    12    18   ar
    26    13    20   ar
    27    14    17   ar
    28    14    27    1
    29    15    28    1
    30    16    19   ar
    31    16    29    1
    32    17    19   ar
    33    18    21   ar
    34    18    31    1
    35    20    22   ar
    36    20    32    1
    37    21    22   ar
    38    21    33    1
