@<TRIPOS>MOLECULE
IMPHY005039
 70 74 0 0 0
SMALL
GASTEIGER

@<TRIPOS>ATOM
      1 O           3.8611    0.1683    0.0000 O.3     1  UNL1       -0.3645
      2 O           3.7320    2.3354    0.0000 O.3     1  UNL1       -0.4585
      3 O           4.9381    4.2371    0.0000 O.3     1  UNL1       -0.3844
      4 O           8.1003    1.8322    0.0000 O.2     1  UNL1       -0.2921
      5 O           8.0622   -1.1646    0.0000 O.3     1  UNL1       -0.4679
      6 O           6.3301   -1.1646    0.0000 O.2     1  UNL1       -0.2509
      7 O           5.6787   -4.6739    0.0000 O.2     1  UNL1       -0.4707
      8 O           2.8660    0.8354    0.0000 O.2     1  UNL1       -0.2512
      9 C           5.4641    0.3354    0.0000 C.3     1  UNL1        0.0255
     10 C           6.3301    0.8354    0.0000 C.3     1  UNL1       -0.0064
     11 C           6.3301    1.8354    0.0000 C.3     1  UNL1        0.0435
     12 C           4.5981    0.8354    0.0000 C.3     1  UNL1        0.1060
     13 C           5.4641    2.3354    0.0000 C.3     1  UNL1        0.0434
     14 C           4.5981    1.8354    0.0000 C.3     1  UNL1        0.1365
     15 C           5.2549   -0.6364    0.0000 C.2     1  UNL1       -0.0328
     16 C           4.2662   -0.7395    0.0000 C.3     1  UNL1        0.0819
     17 C           5.4480    3.3769    0.0000 C.3     1  UNL1        0.0889
     18 C           6.3301   -0.1646    0.0000 C.3     1  UNL1       -0.0530
     19 C           7.1962    0.3354    0.0000 C.3     1  UNL1        0.0495
     20 C           4.0624   -1.7064    0.0000 C.3     1  UNL1       -0.0121
     21 C           5.6537   -1.5406    0.0000 C.2     1  UNL1       -0.0628
     22 C           7.1962    1.3354    0.0000 C.3     1  UNL1       -0.0517
     23 C           7.2401    2.3422    0.0000 C.2     1  UNL1        0.1625
     24 C           4.9182   -2.2005    0.0000 C.3     1  UNL1        0.0109
     25 C           6.3461    3.9046    0.0000 C.2     1  UNL1       -0.0494
     26 C           7.2482    3.3838    0.0000 C.2     1  UNL1       -0.0199
     27 C           4.4481    3.3653    0.0000 C.3     1  UNL1       -0.0320
     28 C           6.6313   -1.7510    0.0000 C.3     1  UNL1       -0.0429
     29 C           7.1962   -0.6646    0.0000 C.2     1  UNL1        0.3071
     30 C           5.0219   -3.1952    0.0000 C.ar    1  UNL1       -0.0025
     31 C           2.8660    1.8354    0.0000 C.2     1  UNL1        0.3043
     32 C           4.2781   -3.8636    0.0000 C.ar    1  UNL1       -0.0202
     33 C           5.8874   -3.6959    0.0000 C.ar    1  UNL1        0.0954
     34 C           2.0000    2.3354    0.0000 C.3     1  UNL1        0.0332
     35 C           4.6841   -4.7776    0.0000 C.ar    1  UNL1        0.0920
     36 C           8.0622   -2.1646    0.0000 C.3     1  UNL1        0.0817
     37 H           6.3301    0.2154    0.0000 H       1  UNL1        0.0325
     38 H           3.8211    1.1801    0.0000 H       1  UNL1        0.0642
     39 H           4.7247    2.7547    0.0000 H       1  UNL1        0.0378
     40 H           4.5981    2.4554    0.0000 H       1  UNL1        0.0764
     41 H           3.4210   -0.8294    0.0000 H       1  UNL1        0.0644
     42 H           6.0201   -0.7016    0.0000 H       1  UNL1        0.0239
     43 H           6.8671   -0.4746    0.0000 H       1  UNL1        0.0239
     44 H           6.6401    0.3723    0.0000 H       1  UNL1        0.0239
     45 H           7.8067    0.2277    0.0000 H       1  UNL1        0.0381
     46 H           7.4082    0.9180    0.0000 H       1  UNL1        0.0381
     47 H           3.4725   -1.5155    0.0000 H       1  UNL1        0.0302
     48 H           3.8105   -2.2730    0.0000 H       1  UNL1        0.0302
     49 H           6.8862    0.7984    0.0000 H       1  UNL1        0.0239
     50 H           7.7331    1.0254    0.0000 H       1  UNL1        0.0239
     51 H           7.5062    1.8723    0.0000 H       1  UNL1        0.0239
     52 H           5.4967   -2.4235    0.0000 H       1  UNL1        0.0396
     53 H           6.3437    4.5246    0.0000 H       1  UNL1        0.0601
     54 H           7.7863    3.6917    0.0000 H       1  UNL1        0.0650
     55 H           4.4409    3.9853    0.0000 H       1  UNL1        0.0260
     56 H           3.8282    3.3581    0.0000 H       1  UNL1        0.0260
     57 H           4.4553    2.7454    0.0000 H       1  UNL1        0.0260
     58 H           6.5008   -2.3572    0.0000 H       1  UNL1        0.0275
     59 H           7.2374   -1.8815    0.0000 H       1  UNL1        0.0275
     60 H           6.7618   -1.1449    0.0000 H       1  UNL1        0.0275
     61 H           5.2418    4.7776    0.0000 H       1  UNL1        0.2106
     62 H           3.6718   -3.7342    0.0000 H       1  UNL1        0.0652
     63 H           6.4541   -3.4442    0.0000 H       1  UNL1        0.1032
     64 H           2.3100    2.8723    0.0000 H       1  UNL1        0.0342
     65 H           1.4631    2.6454    0.0000 H       1  UNL1        0.0342
     66 H           1.6900    1.7984    0.0000 H       1  UNL1        0.0342
     67 H           4.3736   -5.3142    0.0000 H       1  UNL1        0.1029
     68 H           7.4422   -2.1646    0.0000 H       1  UNL1        0.0661
     69 H           8.0622   -2.7846    0.0000 H       1  UNL1        0.0661
     70 H           8.6822   -2.1646    0.0000 H       1  UNL1        0.0661
@<TRIPOS>BOND
     1     1    12    1
     2     1    16    1
     3    14     2    1
     4     2    31    1
     5    17     3    1
     6     3    61    1
     7     4    23    2
     8     5    29    1
     9     5    36    1
    10     6    29    2
    11     7    33   ar
    12     7    35   ar
    13     8    31    2
    14     9    10    1
    15     9    12    1
    16     9    15    1
    17     9    18    1
    18    10    11    1
    19    10    19    1
    20    10    37    1
    21    11    13    1
    22    11    22    1
    23    11    23    1
    24    12    14    1
    25    12    38    1
    26    13    14    1
    27    13    17    1
    28    13    39    1
    29    14    40    1
    30    15    16    1
    31    15    21    2
    32    16    20    1
    33    16    41    1
    34    17    25    1
    35    17    27    1
    36    18    42    1
    37    18    43    1
    38    18    44    1
    39    19    29    1
    40    19    45    1
    41    19    46    1
    42    20    24    1
    43    20    47    1
    44    20    48    1
    45    21    24    1
    46    21    28    1
    47    22    49    1
    48    22    50    1
    49    22    51    1
    50    23    26    1
    51    24    30    1
    52    24    52    1
    53    25    26    2
    54    25    53    1
    55    26    54    1
    56    27    55    1
    57    27    56    1
    58    27    57    1
    59    28    58    1
    60    28    59    1
    61    28    60    1
    62    30    32   ar
    63    30    33   ar
    64    31    34    1
    65    32    35   ar
    66    32    62    1
    67    33    63    1
    68    34    64    1
    69    34    65    1
    70    34    66    1
    71    35    67    1
    72    36    68    1
    73    36    69    1
    74    36    70    1
