@<TRIPOS>MOLECULE
IMPHY017713
 25 24 0 0 0
SMALL
GASTEIGER

@<TRIPOS>ATOM
      1 O           3.7320    0.5600    0.0000 O.3     1  UNL1       -0.4359
      2 O           2.0000    0.5600    0.0000 O.2     1  UNL1       -0.2542
      3 C           8.9282    0.5600    0.0000 C.3     1  UNL1       -0.0499
      4 C           9.7942    0.0600    0.0000 C.3     1  UNL1       -0.0556
      5 C           8.0622    0.0600    0.0000 C.3     1  UNL1       -0.0345
      6 C          10.6603    0.5600    0.0000 C.3     1  UNL1       -0.0653
      7 C           7.1962    0.5600    0.0000 C.2     1  UNL1       -0.0839
      8 C           6.3301    0.0600    0.0000 C.2     1  UNL1       -0.0628
      9 C           5.4641    0.5600    0.0000 C.2     1  UNL1       -0.0270
     10 C           4.5981    0.0600    0.0000 C.2     1  UNL1        0.0953
     11 C           2.8660    0.0600    0.0000 C.2     1  UNL1        0.2990
     12 H           9.3267    1.0350    0.0000 H       1  UNL1        0.0268
     13 H           8.5297    1.0350    0.0000 H       1  UNL1        0.0268
     14 H           9.3957   -0.4149    0.0000 H       1  UNL1        0.0263
     15 H          10.1928   -0.4149    0.0000 H       1  UNL1        0.0263
     16 H           7.6636   -0.4149    0.0000 H       1  UNL1        0.0307
     17 H           8.4607   -0.4149    0.0000 H       1  UNL1        0.0307
     18 H          10.9703    0.0231    0.0000 H       1  UNL1        0.0230
     19 H          11.1972    0.8700    0.0000 H       1  UNL1        0.0230
     20 H          10.3503    1.0969    0.0000 H       1  UNL1        0.0230
     21 H           7.1962    1.1800    0.0000 H       1  UNL1        0.0572
     22 H           6.3301   -0.5600    0.0000 H       1  UNL1        0.0615
     23 H           5.4641    1.1800    0.0000 H       1  UNL1        0.0648
     24 H           4.5981   -0.5600    0.0000 H       1  UNL1        0.1030
     25 H           2.8660   -0.5600    0.0000 H       1  UNL1        0.1516
@<TRIPOS>BOND
     1     1    10    1
     2     1    11    1
     3     2    11    2
     4     3     4    1
     5     3     5    1
     6     3    12    1
     7     3    13    1
     8     4     6    1
     9     4    14    1
    10     4    15    1
    11     5     7    1
    12     5    16    1
    13     5    17    1
    14     6    18    1
    15     6    19    1
    16     6    20    1
    17     7     8    2
    18     7    21    1
    19     8     9    1
    20     8    22    1
    21     9    10    2
    22     9    23    1
    23    10    24    1
    24    11    25    1
