@<TRIPOS>MOLECULE
IMPHY007410
 39 40 0 0 0
SMALL
GASTEIGER

@<TRIPOS>ATOM
      1 O           3.5836   -0.4311    0.0000 O.3     1  UNL1       -0.4605
      2 O           2.0000    0.3736    0.0000 O.2     1  UNL1       -0.2505
      3 C           4.5298    0.8736    0.0000 C.3     1  UNL1        0.0125
      4 C           4.5298   -0.1264    0.0000 C.3     1  UNL1        0.1105
      5 C           3.5836    1.1783    0.0000 C.3     1  UNL1        0.0601
      6 C           5.3958    1.3736    0.0000 C.3     1  UNL1       -0.0276
      7 C           5.3958   -0.6264    0.0000 C.3     1  UNL1        0.0056
      8 C           3.0000    0.3736    0.0000 C.2     1  UNL1        0.3106
      9 C           3.2729    2.1288    0.0000 C.3     1  UNL1       -0.0519
     10 C           5.6547   -1.5923    0.0000 C.2     1  UNL1       -0.0730
     11 C           6.2029    1.8395    0.0000 C.2     1  UNL1       -0.0846
     12 C           7.0689    1.3395    0.0000 C.2     1  UNL1       -0.0762
     13 C           7.0689    0.3395    0.0000 C.3     1  UNL1       -0.0286
     14 C           6.6206   -1.3335    0.0000 C.2     1  UNL1       -0.0846
     15 C           6.3618   -0.3676    0.0000 C.3     1  UNL1       -0.0308
     16 C           5.1547   -2.4584    0.0000 C.3     1  UNL1       -0.0437
     17 C           7.9349    1.8395    0.0000 C.3     1  UNL1       -0.0438
     18 H           4.4399    1.7188    0.0000 H       1  UNL1        0.0347
     19 H           4.4399   -0.9716    0.0000 H       1  UNL1        0.0740
     20 H           2.9711    1.2745    0.0000 H       1  UNL1        0.0415
     21 H           5.3958    0.7536    0.0000 H       1  UNL1        0.0311
     22 H           5.0858    1.9105    0.0000 H       1  UNL1        0.0311
     23 H           6.0158   -0.6264    0.0000 H       1  UNL1        0.0346
     24 H           5.5563   -0.0275    0.0000 H       1  UNL1        0.0346
     25 H           3.8623    2.3214    0.0000 H       1  UNL1        0.0238
     26 H           3.0803    2.7182    0.0000 H       1  UNL1        0.0238
     27 H           2.6836    1.9362    0.0000 H       1  UNL1        0.0238
     28 H           6.1650    2.4584    0.0000 H       1  UNL1        0.0572
     29 H           7.3789   -0.1974    0.0000 H       1  UNL1        0.0313
     30 H           7.6678    0.5000    0.0000 H       1  UNL1        0.0313
     31 H           7.1575   -1.6435    0.0000 H       1  UNL1        0.0572
     32 H           6.0062    0.1403    0.0000 H       1  UNL1        0.0310
     33 H           5.7999   -0.6296    0.0000 H       1  UNL1        0.0310
     34 H           4.6177   -2.1484    0.0000 H       1  UNL1        0.0274
     35 H           4.8447   -2.9953    0.0000 H       1  UNL1        0.0274
     36 H           5.6916   -2.7684    0.0000 H       1  UNL1        0.0274
     37 H           8.2449    1.3026    0.0000 H       1  UNL1        0.0274
     38 H           8.4718    2.1495    0.0000 H       1  UNL1        0.0274
     39 H           7.6249    2.3764    0.0000 H       1  UNL1        0.0274
@<TRIPOS>BOND
     1     1     4    1
     2     1     8    1
     3     2     8    2
     4     3     4    1
     5     3     5    1
     6     3     6    1
     7     3    18    1
     8     4     7    1
     9     4    19    1
    10     5     8    1
    11     5     9    1
    12     5    20    1
    13     6    11    1
    14     6    21    1
    15     6    22    1
    16     7    10    1
    17     7    23    1
    18     7    24    1
    19     9    25    1
    20     9    26    1
    21     9    27    1
    22    10    14    2
    23    10    16    1
    24    11    12    2
    25    11    28    1
    26    12    13    1
    27    12    17    1
    28    13    15    1
    29    13    29    1
    30    13    30    1
    31    14    15    1
    32    14    31    1
    33    15    32    1
    34    15    33    1
    35    16    34    1
    36    16    35    1
    37    16    36    1
    38    17    37    1
    39    17    38    1
    40    17    39    1
