@<TRIPOS>MOLECULE
IMPHY009738
 35 35 0 0 0
SMALL
GASTEIGER

@<TRIPOS>ATOM
      1 O           4.5981   -2.2500    0.0000 O.2     1  UNL1       -0.2974
      2 C           2.8660    1.7500    0.0000 C.3     1  UNL1       -0.0531
      3 C           3.7320    2.2500    0.0000 C.3     1  UNL1       -0.0531
      4 C           2.8660    0.7500    0.0000 C.3     1  UNL1       -0.0531
      5 C           4.5981    1.7500    0.0000 C.3     1  UNL1       -0.0530
      6 C           2.0000    0.2500    0.0000 C.3     1  UNL1       -0.0530
      7 C           4.5981    0.7500    0.0000 C.3     1  UNL1       -0.0527
      8 C           2.0000   -0.7500    0.0000 C.3     1  UNL1       -0.0527
      9 C           2.8660   -1.2500    0.0000 C.3     1  UNL1       -0.0464
     10 C           5.4641    0.2500    0.0000 C.3     1  UNL1       -0.0464
     11 C           5.4641   -0.7500    0.0000 C.3     1  UNL1        0.0058
     12 C           3.7320   -0.7500    0.0000 C.3     1  UNL1        0.0058
     13 C           4.5981   -1.2500    0.0000 C.2     1  UNL1        0.1334
     14 H           2.6540    2.3326    0.0000 H       1  UNL1        0.0265
     15 H           2.2554    1.6423    0.0000 H       1  UNL1        0.0265
     16 H           3.0781    0.1674    0.0000 H       1  UNL1        0.0265
     17 H           3.4766    0.8577    0.0000 H       1  UNL1        0.0265
     18 H           4.1306    2.7250    0.0000 H       1  UNL1        0.0265
     19 H           3.3335    2.7250    0.0000 H       1  UNL1        0.0265
     20 H           5.2087    1.6423    0.0000 H       1  UNL1        0.0265
     21 H           4.8101    2.3326    0.0000 H       1  UNL1        0.0265
     22 H           1.7880    0.8326    0.0000 H       1  UNL1        0.0265
     23 H           1.3894    0.1423    0.0000 H       1  UNL1        0.0265
     24 H           1.3894   -0.6423    0.0000 H       1  UNL1        0.0265
     25 H           1.7880   -1.3326    0.0000 H       1  UNL1        0.0265
     26 H           3.9875    0.8577    0.0000 H       1  UNL1        0.0265
     27 H           4.3860    0.1674    0.0000 H       1  UNL1        0.0265
     28 H           6.0747    0.1423    0.0000 H       1  UNL1        0.0269
     29 H           5.6762    0.8326    0.0000 H       1  UNL1        0.0269
     30 H           2.4675   -1.7250    0.0000 H       1  UNL1        0.0269
     31 H           3.2646   -1.7250    0.0000 H       1  UNL1        0.0269
     32 H           5.6762   -1.3326    0.0000 H       1  UNL1        0.0342
     33 H           6.0747   -0.6423    0.0000 H       1  UNL1        0.0342
     34 H           4.1306   -0.2751    0.0000 H       1  UNL1        0.0342
     35 H           3.3335   -0.2751    0.0000 H       1  UNL1        0.0342
@<TRIPOS>BOND
     1     1    13    2
     2     2     3    1
     3     2     4    1
     4     2    14    1
     5     2    15    1
     6     3     5    1
     7     3    18    1
     8     3    19    1
     9     4     6    1
    10     4    16    1
    11     4    17    1
    12     5     7    1
    13     5    20    1
    14     5    21    1
    15     6     8    1
    16     6    22    1
    17     6    23    1
    18     7    10    1
    19     7    26    1
    20     7    27    1
    21     8     9    1
    22     8    24    1
    23     8    25    1
    24     9    12    1
    25     9    30    1
    26     9    31    1
    27    10    11    1
    28    10    28    1
    29    10    29    1
    30    11    13    1
    31    11    32    1
    32    11    33    1
    33    12    13    1
    34    12    34    1
    35    12    35    1
