@<TRIPOS>MOLECULE
IMPHY006866
 76 80 0 0 0
SMALL
GASTEIGER

@<TRIPOS>ATOM
      1 O           7.7654    3.6818    0.0000 O.3     1  UNL1       -0.4607
      2 O           6.8671   -1.8758    0.0000 O.3     1  UNL1       -0.3379
      3 O           8.6370   -0.8448    0.0000 O.2     1  UNL1       -0.2940
      4 O           9.4995   -0.3513    0.0000 O.2     1  UNL1       -0.2885
      5 O          11.2851    0.6523    0.0000 O.2     1  UNL1       -0.4917
      6 O           8.6035    5.1858    0.0000 O.2     1  UNL1       -0.2508
      7 O           5.1350   -1.8758    0.0000 O.3     1  UNL1       -0.3405
      8 O           6.8671   -3.8758    0.0000 O.3     1  UNL1       -0.3841
      9 O           5.1350   -4.8758    0.0000 O.3     1  UNL1       -0.3864
     10 O           3.4030   -3.8758    0.0000 O.3     1  UNL1       -0.3865
     11 O           2.5369   -2.3758    0.0000 O.3     1  UNL1       -0.3924
     12 C           8.6269    2.1867    0.0000 C.3     1  UNL1        0.0229
     13 C           7.7551    0.6901    0.0000 C.3     1  UNL1        0.0425
     14 C           8.6230    1.1867    0.0000 C.3     1  UNL1        0.0469
     15 C           6.8910    1.1934    0.0000 C.3     1  UNL1       -0.0221
     16 C           7.7628    2.6900    0.0000 C.3     1  UNL1        0.1099
     17 C           6.8948    2.1934    0.0000 C.3     1  UNL1       -0.0111
     18 C           9.5229    2.7179    0.0000 C.3     1  UNL1        0.0032
     19 C           5.9790    0.6901    0.0000 C.3     1  UNL1       -0.0373
     20 C           7.7671   -0.3515    0.0000 C.2     1  UNL1        0.1687
     21 C           9.4910    1.6834    0.0000 C.3     1  UNL1       -0.0549
     22 C           8.6192    0.1867    0.0000 C.3     1  UNL1       -0.0518
     23 C           5.9670   -0.3515    0.0000 C.3     1  UNL1       -0.0167
     24 C           9.5149    0.6486    0.0000 C.2     1  UNL1        0.2019
     25 C           6.8671   -0.8758    0.0000 C.3     1  UNL1        0.1203
     26 C           9.4889    3.7090    0.0000 C.3     1  UNL1        0.0522
     27 C          10.4270    2.2006    0.0000 C.2     1  UNL1       -0.0233
     28 C          10.4229    1.1590    0.0000 C.2     1  UNL1        0.1619
     29 C           5.1208    1.2034    0.0000 C.3     1  UNL1       -0.0620
     30 C           8.6194    4.1859    0.0000 C.2     1  UNL1        0.3079
     31 C          11.2930    2.7006    0.0000 C.3     1  UNL1       -0.0396
     32 C           6.0010   -2.3758    0.0000 C.3     1  UNL1        0.1887
     33 C           6.0010   -3.3758    0.0000 C.3     1  UNL1        0.1341
     34 C          12.1549    1.1456    0.0000 C.3     1  UNL1        0.0789
     35 C           5.1350   -3.8758    0.0000 C.3     1  UNL1        0.1141
     36 C           4.2690   -2.3758    0.0000 C.3     1  UNL1        0.1130
     37 C           4.2690   -3.3758    0.0000 C.3     1  UNL1        0.1119
     38 C           3.4030   -1.8758    0.0000 C.3     1  UNL1        0.0730
     39 H           9.3640    1.6032    0.0000 H       1  UNL1        0.0398
     40 H           6.1598    1.6269    0.0000 H       1  UNL1        0.0314
     41 H           7.0280    3.1174    0.0000 H       1  UNL1        0.0740
     42 H           6.6850    2.7768    0.0000 H       1  UNL1        0.0304
     43 H           6.2838    2.0881    0.0000 H       1  UNL1        0.0304
     44 H          10.2508    3.1569    0.0000 H       1  UNL1        0.0359
     45 H           5.9898    1.3100    0.0000 H       1  UNL1        0.0302
     46 H           9.1789    1.1476    0.0000 H       1  UNL1        0.0237
     47 H          10.0267    1.3713    0.0000 H       1  UNL1        0.0237
     48 H           9.8030    2.2191    0.0000 H       1  UNL1        0.0237
     49 H           8.3071   -0.3490    0.0000 H       1  UNL1        0.0239
     50 H           9.1549   -0.1253    0.0000 H       1  UNL1        0.0239
     51 H           8.9312    0.7225    0.0000 H       1  UNL1        0.0239
     52 H           5.3574   -0.2383    0.0000 H       1  UNL1        0.0297
     53 H           5.7512   -0.9327    0.0000 H       1  UNL1        0.0297
     54 H           7.4046   -1.1848    0.0000 H       1  UNL1        0.0677
     55 H          10.1024    3.6199    0.0000 H       1  UNL1        0.0384
     56 H           9.6857    4.2970    0.0000 H       1  UNL1        0.0384
     57 H           5.4391    1.7354    0.0000 H       1  UNL1        0.0233
     58 H           4.5887    1.5216    0.0000 H       1  UNL1        0.0233
     59 H           4.8026    0.6713    0.0000 H       1  UNL1        0.0233
     60 H          11.6030    2.1637    0.0000 H       1  UNL1        0.0276
     61 H          11.8299    3.0106    0.0000 H       1  UNL1        0.0276
     62 H          10.9830    3.2375    0.0000 H       1  UNL1        0.0276
     63 H           6.5380   -2.6858    0.0000 H       1  UNL1        0.0938
     64 H           6.0010   -3.9958    0.0000 H       1  UNL1        0.0671
     65 H          12.4608    0.6063    0.0000 H       1  UNL1        0.0660
     66 H          12.6943    1.4515    0.0000 H       1  UNL1        0.0660
     67 H          11.8491    1.6849    0.0000 H       1  UNL1        0.0660
     68 H           4.5981   -4.1858    0.0000 H       1  UNL1        0.0648
     69 H           4.2690   -1.7558    0.0000 H       1  UNL1        0.0647
     70 H           3.7320   -3.0658    0.0000 H       1  UNL1        0.0647
     71 H           6.8671   -4.4958    0.0000 H       1  UNL1        0.2101
     72 H           3.8015   -1.4008    0.0000 H       1  UNL1        0.0584
     73 H           3.0044   -1.4008    0.0000 H       1  UNL1        0.0584
     74 H           4.5981   -5.1858    0.0000 H       1  UNL1        0.2100
     75 H           3.4030   -4.4958    0.0000 H       1  UNL1        0.2100
     76 H           2.0000   -2.0658    0.0000 H       1  UNL1        0.2095
@<TRIPOS>BOND
     1     1    16    1
     2     1    30    1
     3    25     2    1
     4    32     2    1
     5     3    20    2
     6     4    24    2
     7     5    28    1
     8     5    34    1
     9     6    30    2
    10     7    32    1
    11     7    36    1
    12    33     8    1
    13     8    71    1
    14    35     9    1
    15     9    74    1
    16    37    10    1
    17    10    75    1
    18    11    38    1
    19    11    76    1
    20    12    14    1
    21    12    16    1
    22    12    18    1
    23    12    21    1
    24    13    14    1
    25    13    15    1
    26    13    20    1
    27    13    22    1
    28    14    24    1
    29    14    39    1
    30    15    17    1
    31    15    19    1
    32    15    40    1
    33    16    17    1
    34    16    41    1
    35    17    42    1
    36    17    43    1
    37    18    26    1
    38    18    27    1
    39    18    44    1
    40    19    23    1
    41    19    29    1
    42    19    45    1
    43    20    25    1
    44    21    46    1
    45    21    47    1
    46    21    48    1
    47    22    49    1
    48    22    50    1
    49    22    51    1
    50    23    25    1
    51    23    52    1
    52    23    53    1
    53    24    28    1
    54    25    54    1
    55    26    30    1
    56    26    55    1
    57    26    56    1
    58    27    28    2
    59    27    31    1
    60    29    57    1
    61    29    58    1
    62    29    59    1
    63    31    60    1
    64    31    61    1
    65    31    62    1
    66    32    33    1
    67    32    63    1
    68    33    35    1
    69    33    64    1
    70    34    65    1
    71    34    66    1
    72    34    67    1
    73    35    37    1
    74    35    68    1
    75    36    37    1
    76    36    38    1
    77    36    69    1
    78    37    70    1
    79    38    72    1
    80    38    73    1
