@<TRIPOS>MOLECULE
IMPHY011328
 165 173 0 0 0
SMALL
GASTEIGER

@<TRIPOS>ATOM
      1 O           8.6184   -3.1527    0.0000 O.3     1  UNL1       -0.3449
      2 O           6.8645    6.1267    0.0000 O.3     1  UNL1       -0.4318
      3 O           5.9812    4.6368    0.0000 O.2     1  UNL1       -0.2501
      4 O           6.8863   -3.1527    0.0000 O.3     1  UNL1       -0.3405
      5 O           8.6184   -5.1527    0.0000 O.3     1  UNL1       -0.3377
      6 O           5.1326    6.1467    0.0000 O.3     1  UNL1       -0.3312
      7 O           6.8863   -6.1527    0.0000 O.3     1  UNL1       -0.3400
      8 O           5.1542   -5.1527    0.0000 O.3     1  UNL1       -0.3865
      9 O           6.8877    8.1266    0.0000 O.3     1  UNL1       -0.3829
     10 O           5.1673    9.1465    0.0000 O.3     1  UNL1       -0.3864
     11 O           9.4844   -3.6527    0.0000 O.3     1  UNL1       -0.3405
     12 O           5.1542   -2.1527    0.0000 O.3     1  UNL1       -0.3924
     13 O           3.4238    8.1666    0.0000 O.3     1  UNL1       -0.3865
     14 O           5.1542   -6.1527    0.0000 O.3     1  UNL1       -0.3405
     15 O          10.3504   -6.1527    0.0000 O.3     1  UNL1       -0.3841
     16 O           2.5405    6.6768    0.0000 O.3     1  UNL1       -0.3924
     17 O           6.8863   -8.1527    0.0000 O.3     1  UNL1       -0.3841
     18 O          12.0824   -5.1527    0.0000 O.3     1  UNL1       -0.3864
     19 O          12.0824   -3.1527    0.0000 O.3     1  UNL1       -0.3865
     20 O           5.1542   -9.1527    0.0000 O.3     1  UNL1       -0.3864
     21 O           3.4222   -8.1527    0.0000 O.3     1  UNL1       -0.3865
     22 O          11.2164   -1.6527    0.0000 O.3     1  UNL1       -0.3924
     23 O           3.4222   -5.1527    0.0000 O.3     1  UNL1       -0.3924
     24 C           7.7173    1.5475    0.0000 C.3     1  UNL1       -0.0194
     25 C           8.5814    1.0442    0.0000 C.3     1  UNL1       -0.0257
     26 C           8.5934    0.0026    0.0000 C.3     1  UNL1       -0.0250
     27 C           7.7211    2.5475    0.0000 C.3     1  UNL1       -0.0051
     28 C           7.6934   -0.5217    0.0000 C.3     1  UNL1       -0.0278
     29 C           6.8053    1.0442    0.0000 C.3     1  UNL1       -0.0463
     30 C           7.6808   -1.6066    0.0000 C.3     1  UNL1       -0.0052
     31 C           6.7933    0.0026    0.0000 C.3     1  UNL1       -0.0486
     32 C           8.5891    3.0442    0.0000 C.2     1  UNL1       -0.0629
     33 C           8.6092    4.0856    0.0000 C.3     1  UNL1       -0.0031
     34 C           9.4493    1.5408    0.0000 C.3     1  UNL1       -0.0306
     35 C           9.5433   -0.5217    0.0000 C.3     1  UNL1       -0.0447
     36 C           6.8131    3.0578    0.0000 C.3     1  UNL1       -0.0424
     37 C           7.7132    4.6168    0.0000 C.3     1  UNL1        0.0744
     38 C           6.7332    1.7249    0.0000 C.3     1  UNL1       -0.0585
     39 C           8.6184   -2.1527    0.0000 C.3     1  UNL1        0.0672
     40 C           6.8091    4.0995    0.0000 C.3     1  UNL1       -0.0359
     41 C           9.4575    0.5059    0.0000 C.3     1  UNL1       -0.0590
     42 C           9.5559   -1.6066    0.0000 C.3     1  UNL1       -0.0255
     43 C           9.4532    2.5408    0.0000 C.2     1  UNL1       -0.0836
     44 C           6.7357    2.3777    0.0000 C.3     1  UNL1       -0.0553
     45 C           9.5631    4.6025    0.0000 C.3     1  UNL1       -0.0403
     46 C           7.7090    5.7018    0.0000 C.3     1  UNL1       -0.0362
     47 C           9.5840    5.6873    0.0000 C.3     1  UNL1       -0.0343
     48 C           6.6808   -1.5989    0.0000 C.3     1  UNL1       -0.0572
     49 C           7.1742   -2.4688    0.0000 C.3     1  UNL1       -0.0572
     50 C           8.6507    6.2406    0.0000 C.3     1  UNL1       -0.0468
     51 C           6.8530    5.1268    0.0000 C.2     1  UNL1        0.3161
     52 C          10.0973    6.5455    0.0000 C.3     1  UNL1       -0.0598
     53 C          10.5839    5.6719    0.0000 C.3     1  UNL1       -0.0598
     54 C           7.7523   -3.6527    0.0000 C.3     1  UNL1        0.1886
     55 C           7.7523   -4.6527    0.0000 C.3     1  UNL1        0.1410
     56 C           6.0043    6.6367    0.0000 C.3     1  UNL1        0.2337
     57 C           6.8863   -5.1527    0.0000 C.3     1  UNL1        0.1209
     58 C           6.0203   -3.6527    0.0000 C.3     1  UNL1        0.1130
     59 C           6.0203   -4.6527    0.0000 C.3     1  UNL1        0.1123
     60 C           6.0159    7.6366    0.0000 C.3     1  UNL1        0.1455
     61 C           5.1557    8.1466    0.0000 C.3     1  UNL1        0.1152
     62 C           5.1542   -3.1527    0.0000 C.3     1  UNL1        0.0730
     63 C           4.2724    6.6567    0.0000 C.3     1  UNL1        0.1140
     64 C           4.2840    7.6566    0.0000 C.3     1  UNL1        0.1120
     65 C           9.4844   -4.6527    0.0000 C.3     1  UNL1        0.1885
     66 C           6.0203   -6.6527    0.0000 C.3     1  UNL1        0.1884
     67 C          10.3504   -5.1527    0.0000 C.3     1  UNL1        0.1341
     68 C           3.4007    6.1668    0.0000 C.3     1  UNL1        0.0731
     69 C           6.0203   -7.6527    0.0000 C.3     1  UNL1        0.1341
     70 C          11.2164   -4.6527    0.0000 C.3     1  UNL1        0.1141
     71 C          10.3504   -3.1527    0.0000 C.3     1  UNL1        0.1130
     72 C          11.2164   -3.6527    0.0000 C.3     1  UNL1        0.1119
     73 C           5.1542   -8.1527    0.0000 C.3     1  UNL1        0.1141
     74 C           4.2882   -6.6527    0.0000 C.3     1  UNL1        0.1130
     75 C           4.2882   -7.6527    0.0000 C.3     1  UNL1        0.1119
     76 C          10.3504   -2.1527    0.0000 C.3     1  UNL1        0.0730
     77 C           3.4222   -6.1527    0.0000 C.3     1  UNL1        0.0730
     78 H           9.3191    0.6220    0.0000 H       1  UNL1        0.0315
     79 H           6.9540   -0.9410    0.0000 H       1  UNL1        0.0312
     80 H           6.6030    1.6302    0.0000 H       1  UNL1        0.0271
     81 H           6.1933    0.9451    0.0000 H       1  UNL1        0.0271
     82 H           6.1837    0.1157    0.0000 H       1  UNL1        0.0268
     83 H           6.5775   -0.5786    0.0000 H       1  UNL1        0.0268
     84 H           9.3353    3.6437    0.0000 H       1  UNL1        0.0357
     85 H           9.6591    0.9574    0.0000 H       1  UNL1        0.0310
     86 H          10.0603    1.6461    0.0000 H       1  UNL1        0.0310
     87 H          10.1554   -0.6207    0.0000 H       1  UNL1        0.0271
     88 H           9.7456    0.0644    0.0000 H       1  UNL1        0.0271
     89 H           6.2018    3.1616    0.0000 H       1  UNL1        0.0274
     90 H           6.6063    2.4734    0.0000 H       1  UNL1        0.0274
     91 H           6.8432    2.3351    0.0000 H       1  UNL1        0.0235
     92 H           6.1230    1.8350    0.0000 H       1  UNL1        0.0235
     93 H           6.6231    1.1148    0.0000 H       1  UNL1        0.0235
     94 H           8.0808   -2.4617    0.0000 H       1  UNL1        0.0602
     95 H           6.5978    4.6823    0.0000 H       1  UNL1        0.0276
     96 H           6.1986    3.9910    0.0000 H       1  UNL1        0.0276
     97 H           9.7696   -0.0298    0.0000 H       1  UNL1        0.0235
     98 H           9.9932    0.8180    0.0000 H       1  UNL1        0.0235
     99 H           9.1454    1.0417    0.0000 H       1  UNL1        0.0235
    100 H           9.7717   -2.1878    0.0000 H       1  UNL1        0.0290
    101 H          10.1655   -1.4935    0.0000 H       1  UNL1        0.0290
    102 H           9.9913    2.8487    0.0000 H       1  UNL1        0.0572
    103 H           6.6304    2.9887    0.0000 H       1  UNL1        0.0238
    104 H           6.1247    2.2724    0.0000 H       1  UNL1        0.0238
    105 H           6.8410    1.7667    0.0000 H       1  UNL1        0.0238
    106 H           9.7608    4.0149    0.0000 H       1  UNL1        0.0276
    107 H          10.1759    4.6968    0.0000 H       1  UNL1        0.0276
    108 H           7.4977    6.2847    0.0000 H       1  UNL1        0.0276
    109 H           7.0985    5.5933    0.0000 H       1  UNL1        0.0276
    110 H           6.6856   -0.9789    0.0000 H       1  UNL1        0.0236
    111 H           6.0609   -1.5941    0.0000 H       1  UNL1        0.0236
    112 H           6.6396   -2.1546    0.0000 H       1  UNL1        0.0236
    113 H           6.8600   -3.0033    0.0000 H       1  UNL1        0.0236
    114 H           7.7087   -2.7829    0.0000 H       1  UNL1        0.0236
    115 H           6.6761   -2.2189    0.0000 H       1  UNL1        0.0236
    116 H           9.0535    6.7120    0.0000 H       1  UNL1        0.0271
    117 H           8.2552    6.7182    0.0000 H       1  UNL1        0.0271
    118 H          10.5743    5.0520    0.0000 H       1  UNL1        0.0235
    119 H          10.6294    6.2273    0.0000 H       1  UNL1        0.0235
    120 H          11.2038    5.6624    0.0000 H       1  UNL1        0.0235
    121 H          10.4155    7.0776    0.0000 H       1  UNL1        0.0235
    122 H           9.5652    6.8638    0.0000 H       1  UNL1        0.0235
    123 H          10.5934    6.2918    0.0000 H       1  UNL1        0.0235
    124 H           8.2893   -3.9627    0.0000 H       1  UNL1        0.0938
    125 H           7.7523   -5.2727    0.0000 H       1  UNL1        0.0675
    126 H           5.9972    6.0167    0.0000 H       1  UNL1        0.1085
    127 H           6.3494   -5.4627    0.0000 H       1  UNL1        0.0651
    128 H           6.0203   -3.0327    0.0000 H       1  UNL1        0.0647
    129 H           5.4833   -4.3427    0.0000 H       1  UNL1        0.0647
    130 H           6.5492    7.3204    0.0000 H       1  UNL1        0.0683
    131 H           5.6962    8.4504    0.0000 H       1  UNL1        0.0648
    132 H           4.5437   -3.0451    0.0000 H       1  UNL1        0.0584
    133 H           4.9422   -3.7353    0.0000 H       1  UNL1        0.0584
    134 H           4.2652    6.0368    0.0000 H       1  UNL1        0.0647
    135 H           3.7435    7.3529    0.0000 H       1  UNL1        0.0647
    136 H           9.4844   -5.2727    0.0000 H       1  UNL1        0.0938
    137 H           4.6173   -4.8427    0.0000 H       1  UNL1        0.2100
    138 H           6.8948    8.7465    0.0000 H       1  UNL1        0.2102
    139 H           6.0203   -6.0327    0.0000 H       1  UNL1        0.0938
    140 H          10.8873   -5.4627    0.0000 H       1  UNL1        0.0671
    141 H           2.9967    5.6965    0.0000 H       1  UNL1        0.0584
    142 H           3.7937    5.6872    0.0000 H       1  UNL1        0.0584
    143 H           4.6340    9.4627    0.0000 H       1  UNL1        0.2100
    144 H           4.6173   -1.8427    0.0000 H       1  UNL1        0.2095
    145 H           6.0203   -8.2727    0.0000 H       1  UNL1        0.0671
    146 H          11.7534   -4.3427    0.0000 H       1  UNL1        0.0648
    147 H           3.4310    8.7866    0.0000 H       1  UNL1        0.2100
    148 H           9.8135   -2.8427    0.0000 H       1  UNL1        0.0647
    149 H          11.2164   -3.0327    0.0000 H       1  UNL1        0.0647
    150 H           4.6173   -8.4627    0.0000 H       1  UNL1        0.0648
    151 H           4.2882   -6.0327    0.0000 H       1  UNL1        0.0647
    152 H           9.8135   -6.4627    0.0000 H       1  UNL1        0.2101
    153 H           3.7513   -7.3427    0.0000 H       1  UNL1        0.0647
    154 H           2.0000    6.3730    0.0000 H       1  UNL1        0.2095
    155 H          10.1383   -1.5701    0.0000 H       1  UNL1        0.0584
    156 H           9.7398   -2.2604    0.0000 H       1  UNL1        0.0584
    157 H           6.8863   -8.7727    0.0000 H       1  UNL1        0.2101
    158 H          12.6194   -4.8427    0.0000 H       1  UNL1        0.2100
    159 H           2.8116   -6.0451    0.0000 H       1  UNL1        0.0584
    160 H           3.2101   -6.7353    0.0000 H       1  UNL1        0.0584
    161 H          12.0824   -2.5327    0.0000 H       1  UNL1        0.2100
    162 H           4.6173   -9.4627    0.0000 H       1  UNL1        0.2100
    163 H           2.8853   -7.8427    0.0000 H       1  UNL1        0.2100
    164 H          11.2164   -1.0327    0.0000 H       1  UNL1        0.2095
    165 H           2.8853   -4.8427    0.0000 H       1  UNL1        0.2095
@<TRIPOS>BOND
     1    39     1    1
     2    54     1    1
     3     2    51    1
     4    56     2    1
     5     3    51    2
     6     4    54    1
     7     4    58    1
     8    55     5    1
     9    65     5    1
    10     6    56    1
    11     6    63    1
    12    57     7    1
    13    66     7    1
    14    59     8    1
    15     8   137    1
    16    60     9    1
    17     9   138    1
    18    61    10    1
    19    10   143    1
    20    11    65    1
    21    11    71    1
    22    12    62    1
    23    12   144    1
    24    64    13    1
    25    13   147    1
    26    14    66    1
    27    14    74    1
    28    67    15    1
    29    15   152    1
    30    16    68    1
    31    16   154    1
    32    69    17    1
    33    17   157    1
    34    70    18    1
    35    18   158    1
    36    72    19    1
    37    19   161    1
    38    73    20    1
    39    20   162    1
    40    75    21    1
    41    21   163    1
    42    22    76    1
    43    22   164    1
    44    23    77    1
    45    23   165    1
    46    24    25    1
    47    24    27    1
    48    24    29    1
    49    24    38    1
    50    25    26    1
    51    25    34    1
    52    25    78    1
    53    26    28    1
    54    26    35    1
    55    26    41    1
    56    27    32    1
    57    27    36    1
    58    27    44    1
    59    28    30    1
    60    28    31    1
    61    28    79    1
    62    29    31    1
    63    29    80    1
    64    29    81    1
    65    30    39    1
    66    30    48    1
    67    30    49    1
    68    31    82    1
    69    31    83    1
    70    32    33    1
    71    32    43    2
    72    33    37    1
    73    33    45    1
    74    33    84    1
    75    34    43    1
    76    34    85    1
    77    34    86    1
    78    35    42    1
    79    35    87    1
    80    35    88    1
    81    36    40    1
    82    36    89    1
    83    36    90    1
    84    37    40    1
    85    37    46    1
    86    37    51    1
    87    38    91    1
    88    38    92    1
    89    38    93    1
    90    39    42    1
    91    39    94    1
    92    40    95    1
    93    40    96    1
    94    41    97    1
    95    41    98    1
    96    41    99    1
    97    42   100    1
    98    42   101    1
    99    43   102    1
   100    44   103    1
   101    44   104    1
   102    44   105    1
   103    45    47    1
   104    45   106    1
   105    45   107    1
   106    46    50    1
   107    46   108    1
   108    46   109    1
   109    47    50    1
   110    47    52    1
   111    47    53    1
   112    48   110    1
   113    48   111    1
   114    48   115    1
   115    49   112    1
   116    49   113    1
   117    49   114    1
   118    50   116    1
   119    50   117    1
   120    52   119    1
   121    52   121    1
   122    52   122    1
   123    53   118    1
   124    53   120    1
   125    53   123    1
   126    54    55    1
   127    54   124    1
   128    55    57    1
   129    55   125    1
   130    56    60    1
   131    56   126    1
   132    57    59    1
   133    57   127    1
   134    58    59    1
   135    58    62    1
   136    58   128    1
   137    59   129    1
   138    60    61    1
   139    60   130    1
   140    61    64    1
   141    61   131    1
   142    62   132    1
   143    62   133    1
   144    63    64    1
   145    63    68    1
   146    63   134    1
   147    64   135    1
   148    65    67    1
   149    65   136    1
   150    66    69    1
   151    66   139    1
   152    67    70    1
   153    67   140    1
   154    68   141    1
   155    68   142    1
   156    69    73    1
   157    69   145    1
   158    70    72    1
   159    70   146    1
   160    71    72    1
   161    71    76    1
   162    71   148    1
   163    72   149    1
   164    73    75    1
   165    73   150    1
   166    74    75    1
   167    74    77    1
   168    74   151    1
   169    75   153    1
   170    76   155    1
   171    76   156    1
   172    77   159    1
   173    77   160    1
