@<TRIPOS>MOLECULE
IMPHY012730
 47 50 0 0 0
SMALL
GASTEIGER

@<TRIPOS>ATOM
      1 O           4.8694   -1.9365    0.0000 O.3     1  UNL1       -0.4529
      2 O           3.6948    2.2791    0.0000 O.3     1  UNL1       -0.3875
      3 O           6.4513   -2.7446    0.0000 O.2     1  UNL1       -0.2452
      4 O           7.3327    0.2947    0.0000 O.2     1  UNL1       -0.4570
      5 O           8.5950    1.5526    0.0000 O.3     1  UNL1       -0.4177
      6 O          10.1841    2.3588    0.0000 O.2     1  UNL1       -0.2452
      7 C           2.7354   -0.6363    0.0000 C.3     1  UNL1       -0.0100
      8 C           3.7508   -0.4041    0.0000 C.2     1  UNL1       -0.0217
      9 C           4.5598   -0.9919    0.0000 C.3     1  UNL1        0.1326
     10 C           5.3688   -0.4041    0.0000 C.3     1  UNL1        0.0386
     11 C           4.0598    0.5470    0.0000 C.2     1  UNL1       -0.0375
     12 C           5.0598    0.5470    0.0000 C.3     1  UNL1       -0.0181
     13 C           2.0324    0.1324    0.0000 C.3     1  UNL1       -0.0414
     14 C           3.3748    1.3317    0.0000 C.3     1  UNL1        0.0767
     15 C           2.3543    1.1230    0.0000 C.3     1  UNL1       -0.0222
     16 C           6.1715   -0.9905    0.0000 C.2     1  UNL1        0.0780
     17 C           2.0000   -1.3140    0.0000 C.3     1  UNL1       -0.0560
     18 C           2.9546   -1.6120    0.0000 C.3     1  UNL1       -0.0560
     19 C           5.8635   -1.9356    0.0000 C.2     1  UNL1        0.3391
     20 C           7.1231   -0.6831    0.0000 C.2     1  UNL1        0.0997
     21 C           8.2843    0.6021    0.0000 C.3     1  UNL1        0.2661
     22 C           9.0923    0.0129    0.0000 C.2     1  UNL1        0.0058
     23 C           9.9023    0.5993    0.0000 C.2     1  UNL1        0.0366
     24 C           9.5950    1.5508    0.0000 C.2     1  UNL1        0.3379
     25 C          10.8528    0.2886    0.0000 C.3     1  UNL1       -0.0330
     26 H           3.8728   -1.4924    0.0000 H       1  UNL1        0.0789
     27 H           6.0571    0.0946    0.0000 H       1  UNL1        0.0394
     28 H           5.6662    0.6759    0.0000 H       1  UNL1        0.0318
     29 H           4.9950    1.1636    0.0000 H       1  UNL1        0.0318
     30 H           1.4842    0.4220    0.0000 H       1  UNL1        0.0274
     31 H           1.6532   -0.3582    0.0000 H       1  UNL1        0.0274
     32 H           2.9644    1.7964    0.0000 H       1  UNL1        0.0640
     33 H           2.3359    1.7427    0.0000 H       1  UNL1        0.0294
     34 H           1.7406    1.2109    0.0000 H       1  UNL1        0.0294
     35 H           1.5798   -0.8581    0.0000 H       1  UNL1        0.0238
     36 H           1.5441   -1.7342    0.0000 H       1  UNL1        0.0238
     37 H           2.4202   -1.7699    0.0000 H       1  UNL1        0.0238
     38 H           2.3496   -1.7479    0.0000 H       1  UNL1        0.0238
     39 H           3.0905   -2.2169    0.0000 H       1  UNL1        0.0238
     40 H           3.5595   -1.4761    0.0000 H       1  UNL1        0.0238
     41 H           3.2853    2.7446    0.0000 H       1  UNL1        0.2102
     42 H           7.5831   -1.0988    0.0000 H       1  UNL1        0.1030
     43 H           8.1862   -0.0101    0.0000 H       1  UNL1        0.1257
     44 H           9.0912   -0.6071    0.0000 H       1  UNL1        0.0650
     45 H          10.6602   -0.3007    0.0000 H       1  UNL1        0.0280
     46 H          11.4422    0.0960    0.0000 H       1  UNL1        0.0280
     47 H          11.0455    0.8779    0.0000 H       1  UNL1        0.0280
@<TRIPOS>BOND
     1     1     9    1
     2     1    19    1
     3    14     2    1
     4     2    41    1
     5     3    19    2
     6     4    20    1
     7    21     4    1
     8     5    21    1
     9     5    24    1
    10     6    24    2
    11     7     8    1
    12     7    13    1
    13     7    17    1
    14     7    18    1
    15     8     9    1
    16     8    11    2
    17     9    10    1
    18     9    26    1
    19    10    12    1
    20    10    16    1
    21    10    27    1
    22    11    12    1
    23    11    14    1
    24    12    28    1
    25    12    29    1
    26    13    15    1
    27    13    30    1
    28    13    31    1
    29    14    15    1
    30    14    32    1
    31    15    33    1
    32    15    34    1
    33    16    19    1
    34    16    20    2
    35    17    35    1
    36    17    36    1
    37    17    37    1
    38    18    38    1
    39    18    39    1
    40    18    40    1
    41    20    42    1
    42    21    22    1
    43    21    43    1
    44    22    23    2
    45    22    44    1
    46    23    24    1
    47    23    25    1
    48    25    45    1
    49    25    46    1
    50    25    47    1
