@<TRIPOS>MOLECULE
IMPHY008820
 33 37 0 0 0
SMALL
GASTEIGER

@<TRIPOS>ATOM
      1 O           2.0000    3.9520    0.0000 O.2     1  UNL1       -0.2961
      2 O          12.5143   -3.8188    0.0000 O.3     1  UNL1       -0.2149
      3 O          10.8722   -4.3696    0.0000 O.co2   1  UNL1       -0.2408
      4 O           9.5741   -3.2228    0.0000 O.co2   1  UNL1       -0.2408
      5 C           5.5301    1.9278    0.0000 C.3     1  UNL1        0.0000
      6 C           4.6641    2.4278    0.0000 C.3     1  UNL1        0.0008
      7 C           4.6638    1.4274    0.0000 C.3     1  UNL1        0.0000
      8 C           6.3962    2.4278    0.0000 C.3     1  UNL1        0.0000
      9 C           4.6641    3.4278    0.0000 C.3     1  UNL1        0.0065
     10 C           7.3062    1.9210    0.0000 C.3     1  UNL1        0.0000
     11 C           5.5141    0.8863    0.0000 C.3     1  UNL1        0.0000
     12 C           7.3142    0.8794    0.0000 C.3     1  UNL1        0.0000
     13 C           3.7702    1.8932    0.0000 C.3     1  UNL1        0.0078
     14 C           6.3962    3.4278    0.0000 C.3     1  UNL1        0.0000
     15 C           5.5301    3.9278    0.0000 C.3     1  UNL1        0.0004
     16 C           6.4121    0.3586    0.0000 C.3     1  UNL1        0.0000
     17 C           3.7702    3.9625    0.0000 C.3     1  UNL1        0.0515
     18 C           8.3022    0.5696    0.0000 C.3     1  UNL1        0.0000
     19 C           8.2893    2.2460    0.0000 C.3     1  UNL1        0.0000
     20 C           2.8641    2.4070    0.0000 C.3     1  UNL1        0.0645
     21 C           8.9036    1.4125    0.0000 C.3     1  UNL1        0.0000
     22 C           2.8641    3.4486    0.0000 C.2     1  UNL1        0.1498
     23 C           7.3219   -0.1206    0.0000 C.3     1  UNL1        0.0000
     24 C           8.6202   -0.3785    0.0000 C.3     1  UNL1        0.0003
     25 C           4.2801    4.8227    0.0000 C.3     1  UNL1        0.0073
     26 C           3.2802    4.8342    0.0000 C.3     1  UNL1        0.0073
     27 C           9.6003   -0.5772    0.0000 C.3     1  UNL1        0.0047
     28 C           7.9581   -1.1280    0.0000 C.3     1  UNL1        0.0000
     29 C           9.9182   -1.5253    0.0000 C.3     1  UNL1        0.0260
     30 C          10.8983   -1.7240    0.0000 C.2     1  UNL1       -0.0213
     31 C          11.2163   -2.6721    0.0000 C.2     1  UNL1        0.0861
     32 C          12.1964   -2.8707    0.0000 C.3     1  UNL1        0.2148
     33 C          10.5542   -3.4215    0.0000 C.2     1  UNL1        0.3860
@<TRIPOS>BOND
     1     1    22    2
     2     2    32    1
     3     3    33   ar
     4     4    33   ar
     5     5     6    1
     6     5     7    1
     7     5     8    1
     8     5    11    1
     9     6     7    1
    10     6     9    1
    11     6    13    1
    12     8    10    1
    13     8    14    1
    14     9    15    1
    15     9    17    1
    16    10    12    1
    17    10    19    1
    18    11    16    1
    19    12    16    1
    20    12    18    1
    21    12    23    1
    22    13    20    1
    23    14    15    1
    24    17    22    1
    25    17    25    1
    26    17    26    1
    27    18    21    1
    28    18    24    1
    29    19    21    1
    30    20    22    1
    31    24    27    1
    32    24    28    1
    33    27    29    1
    34    29    30    1
    35    30    31    2
    36    31    32    1
    37    31    33    1
