@<TRIPOS>MOLECULE
IMPHY001762
 100 107 0 0 0
SMALL
GASTEIGER

@<TRIPOS>ATOM
      1 O          11.1759    3.0363    0.0000 O.3     1  UNL1       -0.3401
      2 O          12.1837    2.2934    0.0000 O.3     1  UNL1       -0.3373
      3 O          11.8683    0.1825    0.0000 O.3     1  UNL1       -0.3859
      4 O           6.3222   -3.8267    0.0000 O.3     1  UNL1       -0.3449
      5 O          14.3561    3.7134    0.0000 O.3     1  UNL1       -0.3865
      6 O           4.8008   -4.6546    0.0000 O.3     1  UNL1       -0.3461
      7 O           5.3661   -2.0700    0.0000 O.3     1  UNL1       -0.3841
      8 O           3.3668   -2.0196    0.0000 O.3     1  UNL1       -0.3864
      9 O           2.3234   -3.7259    0.0000 O.3     1  UNL1       -0.3869
     10 C           8.6033   -0.1693    0.0000 C.3     1  UNL1       -0.0193
     11 C           8.0301   -1.0830    0.0000 C.3     1  UNL1       -0.0193
     12 C           9.6386   -0.1914    0.0000 C.3     1  UNL1       -0.0264
     13 C           7.5250   -0.1294    0.0000 C.3     1  UNL1       -0.0401
     14 C          10.1685    0.6982    0.0000 C.3     1  UNL1        0.0081
     15 C           8.5420   -2.0323    0.0000 C.3     1  UNL1       -0.0273
     16 C           9.6966    1.5731    0.0000 C.3     1  UNL1       -0.0158
     17 C           8.1119    0.7421    0.0000 C.3     1  UNL1       -0.0460
     18 C           6.9077   -1.0330    0.0000 C.3     1  UNL1       -0.0442
     19 C          10.1723   -1.1287    0.0000 C.3     1  UNL1       -0.0488
     20 C           8.6622    1.6192    0.0000 C.3     1  UNL1       -0.0461
     21 C          10.3817    2.2934    0.0000 C.3     1  UNL1        0.0244
     22 C           9.6203   -2.0553    0.0000 C.3     1  UNL1       -0.0488
     23 C          11.1467    0.8748    0.0000 C.3     1  UNL1        0.1153
     24 C           7.9670   -2.9975    0.0000 C.3     1  UNL1       -0.0052
     25 C          11.2827    1.8595    0.0000 C.3     1  UNL1        0.2010
     26 C           6.3106   -1.9847    0.0000 C.3     1  UNL1       -0.0255
     27 C          10.6431   -0.1820    0.0000 C.3     1  UNL1       -0.0562
     28 C           6.8438   -2.9735    0.0000 C.3     1  UNL1        0.0672
     29 C          10.1592    3.2684    0.0000 C.3     1  UNL1       -0.0331
     30 C           9.2220    2.4533    0.0000 C.3     1  UNL1       -0.0585
     31 C          11.7827    4.0502    0.0000 C.3     1  UNL1        0.0912
     32 C           7.9496   -3.9974    0.0000 C.3     1  UNL1       -0.0572
     33 C           8.8242   -3.5126    0.0000 C.3     1  UNL1       -0.0572
     34 C          10.7827    4.0502    0.0000 C.3     1  UNL1       -0.0209
     35 C          12.4062    3.2684    0.0000 C.3     1  UNL1        0.1162
     36 C           9.1843    3.4909    0.0000 C.3     1  UNL1       -0.0619
     37 C          13.3811    3.4909    0.0000 C.3     1  UNL1        0.0890
     38 C           5.3225   -3.8015    0.0000 C.3     1  UNL1        0.1878
     39 C          13.6037    2.5159    0.0000 C.3     1  UNL1       -0.0338
     40 C          13.1586    4.4658    0.0000 C.3     1  UNL1       -0.0338
     41 C           4.8445   -2.9231    0.0000 C.3     1  UNL1        0.1341
     42 C           3.8448   -2.8979    0.0000 C.3     1  UNL1        0.1137
     43 C           3.8011   -4.6294    0.0000 C.3     1  UNL1        0.0792
     44 C           3.3231   -3.7511    0.0000 C.3     1  UNL1        0.1069
     45 H          10.4885   -0.1998    0.0000 H       1  UNL1        0.0313
     46 H           7.4399    0.4847    0.0000 H       1  UNL1        0.0276
     47 H           6.9350   -0.3200    0.0000 H       1  UNL1        0.0276
     48 H           8.9540   -2.7758    0.0000 H       1  UNL1        0.0312
     49 H           7.6508    1.1566    0.0000 H       1  UNL1        0.0271
     50 H           7.6246    0.3587    0.0000 H       1  UNL1        0.0271
     51 H           7.0408   -0.4275    0.0000 H       1  UNL1        0.0272
     52 H           6.3339   -0.7982    0.0000 H       1  UNL1        0.0272
     53 H          10.6428   -1.5324    0.0000 H       1  UNL1        0.0268
     54 H          10.6506   -0.7342    0.0000 H       1  UNL1        0.0268
     55 H           8.7953    2.2247    0.0000 H       1  UNL1        0.0271
     56 H           8.0884    1.8540    0.0000 H       1  UNL1        0.0271
     57 H           9.6159    2.6622    0.0000 H       1  UNL1        0.0362
     58 H           9.5012   -2.6638    0.0000 H       1  UNL1        0.0268
     59 H          10.1994   -2.2768    0.0000 H       1  UNL1        0.0268
     60 H          11.7324    1.0783    0.0000 H       1  UNL1        0.0653
     61 H           5.8495   -1.5701    0.0000 H       1  UNL1        0.0290
     62 H           5.8233   -2.3680    0.0000 H       1  UNL1        0.0290
     63 H          10.0974   -0.4763    0.0000 H       1  UNL1        0.0236
     64 H          10.9374   -0.7278    0.0000 H       1  UNL1        0.0236
     65 H          11.1888    0.1122    0.0000 H       1  UNL1        0.0236
     66 H           6.2240   -2.9567    0.0000 H       1  UNL1        0.0602
     67 H           9.9544    3.8536    0.0000 H       1  UNL1        0.0303
     68 H           9.7677    2.7476    0.0000 H       1  UNL1        0.0235
     69 H           8.9277    2.9990    0.0000 H       1  UNL1        0.0235
     70 H           8.6763    2.1590    0.0000 H       1  UNL1        0.0235
     71 H          11.9719    4.8789    0.0000 H       1  UNL1        0.0624
     72 H           7.3296   -3.9865    0.0000 H       1  UNL1        0.0236
     73 H           7.9387   -4.6173    0.0000 H       1  UNL1        0.0236
     74 H           8.5048   -4.0440    0.0000 H       1  UNL1        0.0236
     75 H           9.3556   -3.8319    0.0000 H       1  UNL1        0.0236
     76 H           9.1435   -2.9812    0.0000 H       1  UNL1        0.0236
     77 H           8.5695   -4.0082    0.0000 H       1  UNL1        0.0236
     78 H          10.9207    4.6546    0.0000 H       1  UNL1        0.0294
     79 H          10.2241    4.3192    0.0000 H       1  UNL1        0.0294
     80 H          13.0072    2.6673    0.0000 H       1  UNL1        0.0652
     81 H          12.4637    0.3553    0.0000 H       1  UNL1        0.2100
     82 H           9.3223    4.0953    0.0000 H       1  UNL1        0.0233
     83 H           8.5798    3.6288    0.0000 H       1  UNL1        0.0233
     84 H           9.0463    2.8864    0.0000 H       1  UNL1        0.0233
     85 H           5.6188   -4.3461    0.0000 H       1  UNL1        0.0937
     86 H          13.7631    4.6038    0.0000 H       1  UNL1        0.0258
     87 H          13.0206    5.0702    0.0000 H       1  UNL1        0.0258
     88 H          12.5542    4.3278    0.0000 H       1  UNL1        0.0258
     89 H          12.9992    2.3780    0.0000 H       1  UNL1        0.0258
     90 H          13.7416    1.9115    0.0000 H       1  UNL1        0.0258
     91 H          14.2081    2.6539    0.0000 H       1  UNL1        0.0258
     92 H           5.4643   -2.9388    0.0000 H       1  UNL1        0.0671
     93 H          14.5388    4.3058    0.0000 H       1  UNL1        0.2102
     94 H           3.2250   -2.8823    0.0000 H       1  UNL1        0.0647
     95 H           3.2134   -4.8267    0.0000 H       1  UNL1        0.0587
     96 H           3.8934   -5.2425    0.0000 H       1  UNL1        0.0587
     97 H           2.9997   -4.2800    0.0000 H       1  UNL1        0.0643
     98 H           5.0698   -1.5254    0.0000 H       1  UNL1        0.2101
     99 H           2.7470   -2.0040    0.0000 H       1  UNL1        0.2100
    100 H           2.0000   -4.2548    0.0000 H       1  UNL1        0.2100
@<TRIPOS>BOND
     1    25     1    1
     2     1    31    1
     3     2    25    1
     4     2    35    1
     5    23     3    1
     6     3    81    1
     7    28     4    1
     8    38     4    1
     9     5    37    1
    10     5    93    1
    11     6    38    1
    12     6    43    1
    13    41     7    1
    14     7    98    1
    15    42     8    1
    16     8    99    1
    17    44     9    1
    18     9   100    1
    19    10    11    1
    20    10    12    1
    21    10    13    1
    22    10    17    1
    23    11    13    1
    24    11    15    1
    25    11    18    1
    26    12    14    1
    27    12    19    1
    28    12    45    1
    29    13    46    1
    30    13    47    1
    31    14    16    1
    32    14    23    1
    33    14    27    1
    34    15    22    1
    35    15    24    1
    36    15    48    1
    37    16    20    1
    38    16    21    1
    39    16    30    1
    40    17    20    1
    41    17    49    1
    42    17    50    1
    43    18    26    1
    44    18    51    1
    45    18    52    1
    46    19    22    1
    47    19    53    1
    48    19    54    1
    49    20    55    1
    50    20    56    1
    51    21    25    1
    52    21    29    1
    53    21    57    1
    54    22    58    1
    55    22    59    1
    56    23    25    1
    57    23    60    1
    58    24    28    1
    59    24    32    1
    60    24    33    1
    61    26    28    1
    62    26    61    1
    63    26    62    1
    64    27    63    1
    65    27    64    1
    66    27    65    1
    67    28    66    1
    68    29    34    1
    69    29    36    1
    70    29    67    1
    71    30    68    1
    72    30    69    1
    73    30    70    1
    74    31    34    1
    75    31    35    1
    76    31    71    1
    77    32    72    1
    78    32    73    1
    79    32    77    1
    80    33    74    1
    81    33    75    1
    82    33    76    1
    83    34    78    1
    84    34    79    1
    85    35    37    1
    86    35    80    1
    87    36    82    1
    88    36    83    1
    89    36    84    1
    90    37    39    1
    91    37    40    1
    92    38    41    1
    93    38    85    1
    94    39    89    1
    95    39    90    1
    96    39    91    1
    97    40    86    1
    98    40    87    1
    99    40    88    1
   100    41    42    1
   101    41    92    1
   102    42    44    1
   103    42    94    1
   104    43    44    1
   105    43    95    1
   106    43    96    1
   107    44    97    1
