@<TRIPOS>MOLECULE
IMPHY016099
 23 22 0 0 0
SMALL
GASTEIGER

@<TRIPOS>ATOM
      1 O           2.5369    0.2500    0.0000 O.3     1  UNL1       -0.3875
      2 C           4.2690    0.2500    0.0000 C.3     1  UNL1       -0.0050
      3 C           3.4030   -0.2500    0.0000 C.3     1  UNL1        0.0765
      4 C           5.1350   -0.2500    0.0000 C.2     1  UNL1       -0.0852
      5 C           6.0010    1.2500    0.0000 C.3     1  UNL1       -0.0376
      6 C           6.0010    0.2500    0.0000 C.2     1  UNL1       -0.0881
      7 C           3.4030   -1.2500    0.0000 C.2     1  UNL1       -0.0627
      8 C           6.8671    1.7500    0.0000 C.3     1  UNL1       -0.0618
      9 C           2.5369   -1.7500    0.0000 C.2     1  UNL1       -0.1002
     10 H           4.6675    0.7249    0.0000 H       1  UNL1        0.0335
     11 H           3.8705    0.7249    0.0000 H       1  UNL1        0.0335
     12 H           3.4030    0.3700    0.0000 H       1  UNL1        0.0640
     13 H           5.1350   -0.8700    0.0000 H       1  UNL1        0.0570
     14 H           5.7890    1.8326    0.0000 H       1  UNL1        0.0305
     15 H           5.3905    1.1423    0.0000 H       1  UNL1        0.0305
     16 H           6.5380   -0.0600    0.0000 H       1  UNL1        0.0569
     17 H           3.9399   -1.5600    0.0000 H       1  UNL1        0.0592
     18 H           7.1771    1.2131    0.0000 H       1  UNL1        0.0233
     19 H           7.4040    2.0600    0.0000 H       1  UNL1        0.0233
     20 H           6.5571    2.2869    0.0000 H       1  UNL1        0.0233
     21 H           2.0000   -0.0600    0.0000 H       1  UNL1        0.2102
     22 H           2.0000   -1.4400    0.0000 H       1  UNL1        0.0533
     23 H           2.5369   -2.3700    0.0000 H       1  UNL1        0.0533
@<TRIPOS>BOND
     1     1     3    1
     2     1    21    1
     3     2     3    1
     4     2     4    1
     5     2    10    1
     6     2    11    1
     7     3     7    1
     8     3    12    1
     9     4     6    2
    10     4    13    1
    11     5     6    1
    12     5     8    1
    13     5    14    1
    14     5    15    1
    15     6    16    1
    16     7     9    2
    17     7    17    1
    18     8    18    1
    19     8    19    1
    20     8    20    1
    21     9    22    1
    22     9    23    1
