@<TRIPOS>MOLECULE
IMPHY000687
 24 24 0 0 0
SMALL
GASTEIGER

@<TRIPOS>ATOM
      1 O           6.3301    1.4050    0.0000 O.3     1  UNL1       -0.4913
      2 O           2.8660    1.4050    0.0000 O.3     1  UNL1       -0.4913
      3 O           4.5981    2.4050    0.0000 O.3     1  UNL1       -0.5009
      4 O           3.7320   -2.0950    0.0000 O.3     1  UNL1       -0.4771
      5 O           5.4641   -2.0950    0.0000 O.2     1  UNL1       -0.2451
      6 C           5.4641    0.9050    0.0000 C.ar    1  UNL1        0.1658
      7 C           3.7320    0.9050    0.0000 C.ar    1  UNL1        0.1658
      8 C           4.5981   -0.5950    0.0000 C.ar    1  UNL1        0.0660
      9 C           4.5981    1.4050    0.0000 C.ar    1  UNL1        0.2011
     10 C           5.4641   -0.0950    0.0000 C.ar    1  UNL1       -0.0021
     11 C           3.7320   -0.0950    0.0000 C.ar    1  UNL1       -0.0021
     12 C           4.5981   -1.5950    0.0000 C.2     1  UNL1        0.3370
     13 C           7.1962    0.9050    0.0000 C.3     1  UNL1        0.0790
     14 C           2.0000    0.9050    0.0000 C.3     1  UNL1        0.0790
     15 H           6.0010   -0.4050    0.0000 H       1  UNL1        0.0663
     16 H           3.1951   -0.4050    0.0000 H       1  UNL1        0.0663
     17 H           5.1350    2.7150    0.0000 H       1  UNL1        0.2924
     18 H           6.8862    0.3681    0.0000 H       1  UNL1        0.0660
     19 H           7.7331    0.5950    0.0000 H       1  UNL1        0.0660
     20 H           7.5062    1.4419    0.0000 H       1  UNL1        0.0660
     21 H           1.6900    1.4419    0.0000 H       1  UNL1        0.0660
     22 H           1.4631    0.5950    0.0000 H       1  UNL1        0.0660
     23 H           2.3100    0.3681    0.0000 H       1  UNL1        0.0660
     24 H           3.7320   -2.7150    0.0000 H       1  UNL1        0.2954
@<TRIPOS>BOND
     1     1     6    1
     2     1    13    1
     3     2     7    1
     4     2    14    1
     5     3     9    1
     6     3    17    1
     7     4    12    1
     8     4    24    1
     9     5    12    2
    10     6     9   ar
    11     6    10   ar
    12     7     9   ar
    13     7    11   ar
    14     8    10   ar
    15     8    11   ar
    16     8    12    1
    17    10    15    1
    18    11    16    1
    19    13    18    1
    20    13    19    1
    21    13    20    1
    22    14    21    1
    23    14    22    1
    24    14    23    1
