@<TRIPOS>MOLECULE
IMPHY009181
 31 34 0 0 0
SMALL
GASTEIGER

@<TRIPOS>ATOM
      1 O           2.8660   -0.5000    0.0000 O.3     1  UNL1       -0.4391
      2 O           2.0000   -2.0000    0.0000 O.2     1  UNL1       -0.2456
      3 N           2.8660    0.5000    0.0000 N.3     1  UNL1       -0.2582
      4 C           3.7320    0.0000    0.0000 C.3     1  UNL1        0.1756
      5 C           4.5981   -0.5000    0.0000 C.3     1  UNL1        0.0402
      6 C           3.8199    1.6336    0.0000 C.3     1  UNL1        0.0333
      7 C           5.1029    0.8929    0.0000 C.3     1  UNL1       -0.0218
      8 C           4.5981    0.5000    0.0000 C.3     1  UNL1        0.0021
      9 C           2.8660    1.5000    0.0000 C.3     1  UNL1        0.0030
     10 C           4.5981   -1.5000    0.0000 C.2     1  UNL1       -0.0326
     11 C           4.5981    1.5000    0.0000 C.3     1  UNL1       -0.0470
     12 C           3.7320    2.0000    0.0000 C.3     1  UNL1       -0.0399
     13 C           4.0428    0.5802    0.0000 C.2     1  UNL1       -0.0666
     14 C           4.3023   -0.4647    0.0000 C.2     1  UNL1       -0.0604
     15 C           3.7320   -2.0000    0.0000 C.2     1  UNL1        0.0262
     16 C           2.8660   -1.5000    0.0000 C.2     1  UNL1        0.3339
     17 H           5.2087   -0.6072    0.0000 H       1  UNL1        0.0402
     18 H           3.7126    2.2443    0.0000 H       1  UNL1        0.0508
     19 H           5.6724    0.6478    0.0000 H       1  UNL1        0.0291
     20 H           5.3809    1.4470    0.0000 H       1  UNL1        0.0291
     21 H           4.8101   -0.0826    0.0000 H       1  UNL1        0.0318
     22 H           5.2087    0.6077    0.0000 H       1  UNL1        0.0318
     23 H           2.6540    2.0826    0.0000 H       1  UNL1        0.0428
     24 H           2.2554    1.3923    0.0000 H       1  UNL1        0.0428
     25 H           5.2087    1.3923    0.0000 H       1  UNL1        0.0267
     26 H           4.8101    2.0826    0.0000 H       1  UNL1        0.0267
     27 H           4.1306    2.4750    0.0000 H       1  UNL1        0.0278
     28 H           3.3335    2.4750    0.0000 H       1  UNL1        0.0278
     29 H           3.4385    0.4413    0.0000 H       1  UNL1        0.0588
     30 H           3.7032   -0.6246    0.0000 H       1  UNL1        0.0618
     31 H           3.7320   -2.6200    0.0000 H       1  UNL1        0.0692
@<TRIPOS>BOND
     1     1     4    1
     2     1    16    1
     3     2    16    2
     4     3     4    1
     5     3     6    1
     6     3     9    1
     7     4     5    1
     8     4     8    1
     9     5     7    1
    10     5    10    1
    11     5    17    1
    12     6     7    1
    13     6    13    1
    14     6    18    1
    15     7    19    1
    16     7    20    1
    17     8    11    1
    18     8    21    1
    19     8    22    1
    20     9    12    1
    21     9    23    1
    22     9    24    1
    23    10    14    1
    24    10    15    2
    25    11    12    1
    26    11    25    1
    27    11    26    1
    28    12    27    1
    29    12    28    1
    30    13    14    2
    31    13    29    1
    32    14    30    1
    33    15    16    1
    34    15    31    1
