@<TRIPOS>MOLECULE
IMPHY012947
 49 48 0 0 0
SMALL
GASTEIGER

@<TRIPOS>ATOM
      1 O           8.9282    0.4400    0.0000 O.3     1  UNL1       -0.4605
      2 O           9.7942   -1.0600    0.0000 O.2     1  UNL1       -0.2508
      3 C          12.3923    0.4400    0.0000 C.3     1  UNL1       -0.0526
      4 C          13.2583   -0.0600    0.0000 C.3     1  UNL1       -0.0533
      5 C          11.5263   -0.0600    0.0000 C.3     1  UNL1       -0.0430
      6 C          14.1244    0.4400    0.0000 C.3     1  UNL1       -0.0559
      7 C          10.6603    0.4400    0.0000 C.3     1  UNL1        0.0449
      8 C          14.9904   -0.0600    0.0000 C.3     1  UNL1       -0.0653
      9 C           5.4641    0.4400    0.0000 C.3     1  UNL1       -0.0285
     10 C           9.7942   -0.0600    0.0000 C.2     1  UNL1        0.3074
     11 C           6.3301   -0.0600    0.0000 C.2     1  UNL1       -0.0731
     12 C           4.5981   -0.0600    0.0000 C.3     1  UNL1       -0.0308
     13 C           8.0622   -0.0600    0.0000 C.3     1  UNL1        0.1109
     14 C           7.1962    0.4400    0.0000 C.2     1  UNL1       -0.0480
     15 C           3.7320    0.4400    0.0000 C.2     1  UNL1       -0.0850
     16 C           6.3301   -1.0600    0.0000 C.3     1  UNL1       -0.0437
     17 C           2.8660   -0.0600    0.0000 C.2     1  UNL1       -0.0796
     18 C           2.0000    0.4400    0.0000 C.3     1  UNL1       -0.0440
     19 C           2.8660   -1.0600    0.0000 C.3     1  UNL1       -0.0440
     20 H          12.7908    0.9149    0.0000 H       1  UNL1        0.0265
     21 H          11.9938    0.9149    0.0000 H       1  UNL1        0.0265
     22 H          12.8598   -0.5349    0.0000 H       1  UNL1        0.0265
     23 H          13.6569   -0.5349    0.0000 H       1  UNL1        0.0265
     24 H          11.1278   -0.5349    0.0000 H       1  UNL1        0.0270
     25 H          11.9248   -0.5349    0.0000 H       1  UNL1        0.0270
     26 H          14.5229    0.9149    0.0000 H       1  UNL1        0.0263
     27 H          13.7258    0.9149    0.0000 H       1  UNL1        0.0263
     28 H          11.0588    0.9149    0.0000 H       1  UNL1        0.0377
     29 H          10.2617    0.9149    0.0000 H       1  UNL1        0.0377
     30 H          14.6804   -0.5969    0.0000 H       1  UNL1        0.0230
     31 H          15.5273   -0.3700    0.0000 H       1  UNL1        0.0230
     32 H          15.3004    0.4769    0.0000 H       1  UNL1        0.0230
     33 H           5.8626    0.9149    0.0000 H       1  UNL1        0.0313
     34 H           5.0656    0.9149    0.0000 H       1  UNL1        0.0313
     35 H           4.1996   -0.5349    0.0000 H       1  UNL1        0.0310
     36 H           4.9966   -0.5349    0.0000 H       1  UNL1        0.0310
     37 H           7.6636   -0.5349    0.0000 H       1  UNL1        0.0743
     38 H           8.4607   -0.5349    0.0000 H       1  UNL1        0.0743
     39 H           7.1962    1.0600    0.0000 H       1  UNL1        0.0605
     40 H           3.7320    1.0600    0.0000 H       1  UNL1        0.0572
     41 H           5.7101   -1.0600    0.0000 H       1  UNL1        0.0274
     42 H           6.3301   -1.6800    0.0000 H       1  UNL1        0.0274
     43 H           6.9501   -1.0600    0.0000 H       1  UNL1        0.0274
     44 H           2.3100    0.9769    0.0000 H       1  UNL1        0.0274
     45 H           1.4631    0.7500    0.0000 H       1  UNL1        0.0274
     46 H           1.6900   -0.0969    0.0000 H       1  UNL1        0.0274
     47 H           2.2460   -1.0600    0.0000 H       1  UNL1        0.0274
     48 H           2.8660   -1.6800    0.0000 H       1  UNL1        0.0274
     49 H           3.4860   -1.0600    0.0000 H       1  UNL1        0.0274
@<TRIPOS>BOND
     1     1    10    1
     2     1    13    1
     3     2    10    2
     4     3     4    1
     5     3     5    1
     6     3    20    1
     7     3    21    1
     8     4     6    1
     9     4    22    1
    10     4    23    1
    11     5     7    1
    12     5    24    1
    13     5    25    1
    14     6     8    1
    15     6    26    1
    16     6    27    1
    17     7    10    1
    18     7    28    1
    19     7    29    1
    20     8    30    1
    21     8    31    1
    22     8    32    1
    23     9    11    1
    24     9    12    1
    25     9    33    1
    26     9    34    1
    27    11    14    2
    28    11    16    1
    29    12    15    1
    30    12    35    1
    31    12    36    1
    32    13    14    1
    33    13    37    1
    34    13    38    1
    35    14    39    1
    36    15    17    2
    37    15    40    1
    38    16    41    1
    39    16    42    1
    40    16    43    1
    41    17    18    1
    42    17    19    1
    43    18    44    1
    44    18    45    1
    45    18    46    1
    46    19    47    1
    47    19    48    1
    48    19    49    1
