@<TRIPOS>MOLECULE
IMPHY013289
 109 106 0 0 0
SMALL
GASTEIGER

@<TRIPOS>ATOM
      1 O           5.7662    8.5136    0.0000 O.3     1  UNL1       -0.3877
      2 O           5.7901    5.4377    0.0000 O.3     1  UNL1       -0.3878
      3 O           2.1701    7.9997    0.0000 O.3     1  UNL1       -0.3915
      4 O           2.0887    5.7826    0.0000 O.3     1  UNL1       -0.3910
      5 O           2.1778    7.1461    0.0000 O.3     1  UNL1       -0.3943
      6 O           4.0010    3.3100    0.0000 O.3     1  UNL1       -0.3452
      7 O           2.1621   12.0272    0.0000 O.3     1  UNL1       -0.4571
      8 O           2.2690    3.3100    0.0000 O.3     1  UNL1       -0.3431
      9 O           2.7971   13.6923    0.0000 O.2     1  UNL1       -0.2456
     10 O           4.0010    1.3100    0.0000 O.3     1  UNL1       -0.3841
     11 O           2.2690    0.3100    0.0000 O.3     1  UNL1       -0.3864
     12 O           0.5369    1.3100    0.0000 O.3     1  UNL1       -0.3866
     13 O          12.0995    6.5928    0.0000 O.3     2  HOH2       -0.4105
     14 O          12.0995   11.6591    0.0000 O.3     3  HOH3       -0.4105
     15 O           8.9991    9.1259    0.0000 O.3     4  HOH4       -0.4105
     16 O           3.2178   15.7188    0.0000 O.3     5  HOH5       -0.4105
     17 O          12.0995    9.1259    0.0000 O.3     6  HOH6       -0.4105
     18 O          15.1999    9.1259    0.0000 O.3     7  HOH7       -0.4105
     19 O           3.2178   18.2519    0.0000 O.3     8  HOH8       -0.4105
     20 O          18.3002    9.1259    0.0000 O.3     9  HOH9       -0.4105
     21 C           4.0380    7.5069    0.0000 C.3     1  UNL1        0.0032
     22 C           4.9021    8.0102    0.0000 C.3     1  UNL1       -0.0056
     23 C           4.8982    9.0102    0.0000 C.3     1  UNL1        0.0752
     24 C           4.0303    9.5069    0.0000 C.3     1  UNL1        0.0059
     25 C           4.0260    6.4653    0.0000 C.3     1  UNL1        0.0540
     26 C           4.9260    5.9410    0.0000 C.3     1  UNL1        0.0788
     27 C           3.1701    8.0036    0.0000 C.3     1  UNL1        0.0598
     28 C           3.1662    9.0035    0.0000 C.3     1  UNL1       -0.0180
     29 C           4.2358   10.4795    0.0000 C.3     1  UNL1       -0.0080
     30 C           5.8140    7.5069    0.0000 C.3     1  UNL1       -0.0446
     31 C           5.6327    9.6801    0.0000 C.3     1  UNL1       -0.0226
     32 C           5.8261    6.4653    0.0000 C.3     1  UNL1       -0.0229
     33 C           3.0760    5.9410    0.0000 C.3     1  UNL1        0.0683
     34 C           5.2241   10.5864    0.0000 C.3     1  UNL1       -0.0432
     35 C           4.9386    4.8561    0.0000 C.3     1  UNL1        0.0032
     36 C           3.1619    6.9687    0.0000 C.3     1  UNL1        0.0552
     37 C           3.1624   10.0035    0.0000 C.3     1  UNL1       -0.0563
     38 C           3.0635    4.8561    0.0000 C.3     1  UNL1        0.0004
     39 C           4.0010    4.3100    0.0000 C.3     1  UNL1        0.0668
     40 C           3.5650   11.2212    0.0000 C.2     1  UNL1       -0.0222
     41 C           2.5708   11.1146    0.0000 C.3     1  UNL1        0.1147
     42 C           3.7709   12.1998    0.0000 C.2     1  UNL1        0.0252
     43 C           3.1350    2.8100    0.0000 C.3     1  UNL1        0.1881
     44 C           2.9038   12.6980    0.0000 C.2     1  UNL1        0.3323
     45 C           3.1350    1.8100    0.0000 C.3     1  UNL1        0.1341
     46 C           2.2690    1.3100    0.0000 C.3     1  UNL1        0.1140
     47 C           1.4030    2.8100    0.0000 C.3     1  UNL1        0.0873
     48 C           1.4030    1.8100    0.0000 C.3     1  UNL1        0.1095
     49 C           0.5369    3.3100    0.0000 C.3     1  UNL1       -0.0361
     50 H           4.5737    7.1948    0.0000 H       1  UNL1        0.0337
     51 H           5.4354    8.3264    0.0000 H       1  UNL1        0.0332
     52 H           3.0119    7.4041    0.0000 H       1  UNL1        0.0596
     53 H           2.9519    9.5853    0.0000 H       1  UNL1        0.0296
     54 H           2.5560    8.8935    0.0000 H       1  UNL1        0.0296
     55 H           4.4565   11.0589    0.0000 H       1  UNL1        0.0353
     56 H           6.4261    7.4079    0.0000 H       1  UNL1        0.0270
     57 H           6.0163    8.0930    0.0000 H       1  UNL1        0.0270
     58 H           6.0000    9.1807    0.0000 H       1  UNL1        0.0293
     59 H           6.1680    9.9930    0.0000 H       1  UNL1        0.0293
     60 H           6.0419    5.8841    0.0000 H       1  UNL1        0.0293
     61 H           6.4357    6.5785    0.0000 H       1  UNL1        0.0293
     62 H           2.8741    6.5272    0.0000 H       1  UNL1        0.0601
     63 H           5.8129   10.7804    0.0000 H       1  UNL1        0.0272
     64 H           5.0930   11.1923    0.0000 H       1  UNL1        0.0272
     65 H           5.1544    4.2749    0.0000 H       1  UNL1        0.0318
     66 H           5.5482    4.9693    0.0000 H       1  UNL1        0.0318
     67 H           3.6606    7.3370    0.0000 H       1  UNL1        0.0564
     68 H           2.9476    6.3869    0.0000 H       1  UNL1        0.0564
     69 H           3.4703   10.5417    0.0000 H       1  UNL1        0.0236
     70 H           2.6242   10.3115    0.0000 H       1  UNL1        0.0236
     71 H           2.8544    9.4654    0.0000 H       1  UNL1        0.0236
     72 H           2.4539    4.9693    0.0000 H       1  UNL1        0.0315
     73 H           2.8477    4.2749    0.0000 H       1  UNL1        0.0315
     74 H           4.5386    4.0010    0.0000 H       1  UNL1        0.0599
     75 H           6.3019    8.8256    0.0000 H       1  UNL1        0.2102
     76 H           6.3282    5.7456    0.0000 H       1  UNL1        0.2102
     77 H           1.8580    8.5355    0.0000 H       1  UNL1        0.2098
     78 H           1.8677    5.2033    0.0000 H       1  UNL1        0.2098
     79 H           1.9815   10.9217    0.0000 H       1  UNL1        0.0746
     80 H           2.7009   10.5084    0.0000 H       1  UNL1        0.0746
     81 H           1.7774    6.6727    0.0000 H       1  UNL1        0.2094
     82 H           4.3367   12.4532    0.0000 H       1  UNL1        0.0689
     83 H           3.1350    3.4300    0.0000 H       1  UNL1        0.0937
     84 H           3.1350    1.1900    0.0000 H       1  UNL1        0.0671
     85 H           1.7320    1.0000    0.0000 H       1  UNL1        0.0648
     86 H           1.4030    3.4300    0.0000 H       1  UNL1        0.0621
     87 H           1.4030    1.1900    0.0000 H       1  UNL1        0.0646
     88 H           4.0010    0.6900    0.0000 H       1  UNL1        0.2101
     89 H           0.8469    3.8469    0.0000 H       1  UNL1        0.0255
     90 H           0.0000    3.6200    0.0000 H       1  UNL1        0.0255
     91 H           0.2269    2.7731    0.0000 H       1  UNL1        0.0255
     92 H           1.7320    0.0000    0.0000 H       1  UNL1        0.2100
     93 H           0.0000    1.6200    0.0000 H       1  UNL1        0.2100
     94 H          12.6364    6.9028    0.0000 H       0  HOH0        0.2052
     95 H          11.5625    6.9028    0.0000 H       0  HOH0        0.2052
     96 H          12.6364   11.9691    0.0000 H       0  HOH0        0.2052
     97 H          11.5625   11.9691    0.0000 H       0  HOH0        0.2052
     98 H           9.5360    9.4359    0.0000 H       0  HOH0        0.2052
     99 H           8.4622    9.4359    0.0000 H       0  HOH0        0.2052
    100 H           3.7548   16.0288    0.0000 H       0  HOH0        0.2052
    101 H           2.6809   16.0288    0.0000 H       0  HOH0        0.2052
    102 H          12.6364    9.4359    0.0000 H       0  HOH0        0.2052
    103 H          11.5625    9.4359    0.0000 H       0  HOH0        0.2052
    104 H          15.7368    9.4359    0.0000 H       0  HOH0        0.2052
    105 H          14.6629    9.4359    0.0000 H       0  HOH0        0.2052
    106 H           3.7548   18.5619    0.0000 H       0  HOH0        0.2052
    107 H           2.6809   18.5619    0.0000 H       0  HOH0        0.2052
    108 H          18.8372    9.4359    0.0000 H       0  HOH0        0.2052
    109 H          17.7633    9.4359    0.0000 H       0  HOH0        0.2052
@<TRIPOS>BOND
     1     1    23    1
     2     1    75    1
     3     2    26    1
     4     2    76    1
     5     3    27    1
     6     3    77    1
     7     4    33    1
     8     4    78    1
     9     5    36    1
    10     5    81    1
    11     6    39    1
    12     6    43    1
    13     7    41    1
    14     7    44    1
    15     8    43    1
    16     8    47    1
    17     9    44    2
    18    10    45    1
    19    10    88    1
    20    11    46    1
    21    11    92    1
    22    12    48    1
    23    12    93    1
    24    13    94    1
    25    13    95    1
    26    14    96    1
    27    14    97    1
    28    15    98    1
    29    15    99    1
    30    16   100    1
    31    16   101    1
    32    17   102    1
    33    17   103    1
    34    18   104    1
    35    18   105    1
    36    19   106    1
    37    19   107    1
    38    20   108    1
    39    20   109    1
    40    21    22    1
    41    21    25    1
    42    21    27    1
    43    21    50    1
    44    22    23    1
    45    22    30    1
    46    22    51    1
    47    23    24    1
    48    23    31    1
    49    24    28    1
    50    24    29    1
    51    24    37    1
    52    25    26    1
    53    25    33    1
    54    25    36    1
    55    26    32    1
    56    26    35    1
    57    27    28    1
    58    27    52    1
    59    28    53    1
    60    28    54    1
    61    29    34    1
    62    29    40    1
    63    29    55    1
    64    30    32    1
    65    30    56    1
    66    30    57    1
    67    31    34    1
    68    31    58    1
    69    31    59    1
    70    32    60    1
    71    32    61    1
    72    33    38    1
    73    33    62    1
    74    34    63    1
    75    34    64    1
    76    35    39    1
    77    35    65    1
    78    35    66    1
    79    36    67    1
    80    36    68    1
    81    37    69    1
    82    37    70    1
    83    37    71    1
    84    38    39    1
    85    38    72    1
    86    38    73    1
    87    39    74    1
    88    40    41    1
    89    40    42    2
    90    41    79    1
    91    41    80    1
    92    42    44    1
    93    42    82    1
    94    43    45    1
    95    43    83    1
    96    45    46    1
    97    45    84    1
    98    46    48    1
    99    46    85    1
   100    47    48    1
   101    47    49    1
   102    47    86    1
   103    48    87    1
   104    49    89    1
   105    49    90    1
   106    49    91    1
