@<TRIPOS>MOLECULE
IMPHY008773
 65 64 0 0 0
SMALL
GASTEIGER

@<TRIPOS>ATOM
      1 O          16.7224   -1.2500    0.0000 O.2     1  UNL1       -0.2708
      2 N          17.5885    0.2500    0.0000 N.am    1  UNL1       -0.3116
      3 C           7.1962    0.2500    0.0000 C.3     1  UNL1       -0.0531
      4 C           8.0622   -0.2500    0.0000 C.3     1  UNL1       -0.0531
      5 C           6.3301   -0.2500    0.0000 C.3     1  UNL1       -0.0531
      6 C           8.9282    0.2500    0.0000 C.3     1  UNL1       -0.0531
      7 C           5.4641    0.2500    0.0000 C.3     1  UNL1       -0.0531
      8 C           9.7942   -0.2500    0.0000 C.3     1  UNL1       -0.0530
      9 C           4.5981   -0.2500    0.0000 C.3     1  UNL1       -0.0531
     10 C          10.6603    0.2500    0.0000 C.3     1  UNL1       -0.0528
     11 C           3.7320    0.2500    0.0000 C.3     1  UNL1       -0.0533
     12 C          11.5263   -0.2500    0.0000 C.3     1  UNL1       -0.0496
     13 C           2.8660   -0.2500    0.0000 C.3     1  UNL1       -0.0559
     14 C          12.3923    0.2500    0.0000 C.3     1  UNL1       -0.0345
     15 C           2.0000    0.2500    0.0000 C.3     1  UNL1       -0.0653
     16 C          13.2583   -0.2500    0.0000 C.2     1  UNL1       -0.0840
     17 C          19.3205    0.2500    0.0000 C.3     1  UNL1       -0.0311
     18 C          18.4545   -0.2500    0.0000 C.3     1  UNL1        0.0142
     19 C          14.1244    0.2500    0.0000 C.2     1  UNL1       -0.0655
     20 C          20.1865   -0.2500    0.0000 C.3     1  UNL1       -0.0612
     21 C          19.3205    1.2500    0.0000 C.3     1  UNL1       -0.0612
     22 C          14.9904   -0.2500    0.0000 C.2     1  UNL1       -0.0571
     23 C          16.7224   -0.2500    0.0000 C.2     1  UNL1        0.2369
     24 C          15.8564    0.2500    0.0000 C.2     1  UNL1        0.0001
     25 H           7.5947    0.7249    0.0000 H       1  UNL1        0.0265
     26 H           6.7976    0.7249    0.0000 H       1  UNL1        0.0265
     27 H           7.6636   -0.7249    0.0000 H       1  UNL1        0.0265
     28 H           8.4607   -0.7249    0.0000 H       1  UNL1        0.0265
     29 H           5.9316   -0.7249    0.0000 H       1  UNL1        0.0265
     30 H           6.7287   -0.7249    0.0000 H       1  UNL1        0.0265
     31 H           9.3267    0.7249    0.0000 H       1  UNL1        0.0265
     32 H           8.5297    0.7249    0.0000 H       1  UNL1        0.0265
     33 H           5.8626    0.7249    0.0000 H       1  UNL1        0.0265
     34 H           5.0656    0.7249    0.0000 H       1  UNL1        0.0265
     35 H           9.3957   -0.7249    0.0000 H       1  UNL1        0.0265
     36 H          10.1928   -0.7249    0.0000 H       1  UNL1        0.0265
     37 H           4.1996   -0.7249    0.0000 H       1  UNL1        0.0265
     38 H           4.9966   -0.7249    0.0000 H       1  UNL1        0.0265
     39 H          11.0588    0.7249    0.0000 H       1  UNL1        0.0265
     40 H          10.2617    0.7249    0.0000 H       1  UNL1        0.0265
     41 H           4.1306    0.7249    0.0000 H       1  UNL1        0.0265
     42 H           3.3335    0.7249    0.0000 H       1  UNL1        0.0265
     43 H          11.1278   -0.7249    0.0000 H       1  UNL1        0.0268
     44 H          11.9248   -0.7249    0.0000 H       1  UNL1        0.0268
     45 H           2.4675   -0.7249    0.0000 H       1  UNL1        0.0263
     46 H           3.2646   -0.7249    0.0000 H       1  UNL1        0.0263
     47 H          12.7908    0.7249    0.0000 H       1  UNL1        0.0307
     48 H          11.9938    0.7249    0.0000 H       1  UNL1        0.0307
     49 H           2.3100    0.7869    0.0000 H       1  UNL1        0.0230
     50 H           1.4631    0.5600    0.0000 H       1  UNL1        0.0230
     51 H           1.6900   -0.2869    0.0000 H       1  UNL1        0.0230
     52 H          13.2583   -0.8700    0.0000 H       1  UNL1        0.0572
     53 H          19.8574    0.5600    0.0000 H       1  UNL1        0.0311
     54 H          18.0560   -0.7249    0.0000 H       1  UNL1        0.0465
     55 H          18.8530   -0.7249    0.0000 H       1  UNL1        0.0465
     56 H          14.1244    0.8700    0.0000 H       1  UNL1        0.0614
     57 H          19.8765   -0.7869    0.0000 H       1  UNL1        0.0233
     58 H          20.7235   -0.5600    0.0000 H       1  UNL1        0.0233
     59 H          20.4965    0.2869    0.0000 H       1  UNL1        0.0233
     60 H          19.9405    1.2500    0.0000 H       1  UNL1        0.0233
     61 H          19.3205    1.8700    0.0000 H       1  UNL1        0.0233
     62 H          18.7005    1.2500    0.0000 H       1  UNL1        0.0233
     63 H          17.5885    0.8700    0.0000 H       1  UNL1        0.1490
     64 H          14.9904   -0.8700    0.0000 H       1  UNL1        0.0619
     65 H          15.8564    0.8700    0.0000 H       1  UNL1        0.0669
@<TRIPOS>BOND
     1     1    23    2
     2     2    18    1
     3     2    23   am
     4     2    63    1
     5     3     4    1
     6     3     5    1
     7     3    25    1
     8     3    26    1
     9     4     6    1
    10     4    27    1
    11     4    28    1
    12     5     7    1
    13     5    29    1
    14     5    30    1
    15     6     8    1
    16     6    31    1
    17     6    32    1
    18     7     9    1
    19     7    33    1
    20     7    34    1
    21     8    10    1
    22     8    35    1
    23     8    36    1
    24     9    11    1
    25     9    37    1
    26     9    38    1
    27    10    12    1
    28    10    39    1
    29    10    40    1
    30    11    13    1
    31    11    41    1
    32    11    42    1
    33    12    14    1
    34    12    43    1
    35    12    44    1
    36    13    15    1
    37    13    45    1
    38    13    46    1
    39    14    16    1
    40    14    47    1
    41    14    48    1
    42    15    49    1
    43    15    50    1
    44    15    51    1
    45    16    19    2
    46    16    52    1
    47    17    18    1
    48    17    20    1
    49    17    21    1
    50    17    53    1
    51    18    54    1
    52    18    55    1
    53    19    22    1
    54    19    56    1
    55    20    57    1
    56    20    58    1
    57    20    59    1
    58    21    60    1
    59    21    61    1
    60    21    62    1
    61    22    24    2
    62    22    64    1
    63    23    24    1
    64    24    65    1
