@<TRIPOS>MOLECULE
IMPHY002066
 48 51 0 0 0
SMALL
GASTEIGER

@<TRIPOS>ATOM
      1 O           2.8963    3.2496    0.0000 O.3     1  UNL1       -0.4911
      2 O           5.6405   -3.4188    0.0000 O.3     1  UNL1       -0.4914
      3 O           4.6622    4.2874    0.0000 O.3     1  UNL1       -0.4914
      4 O           3.8372   -4.4786    0.0000 O.3     1  UNL1       -0.5033
      5 N           2.9180    0.2181    0.0000 N.3     1  UNL1       -0.2905
      6 C           3.7841   -0.2819    0.0000 C.3     1  UNL1        0.0403
      7 C           4.6501    0.2181    0.0000 C.3     1  UNL1       -0.0074
      8 C           2.0080   -0.2887    0.0000 C.3     1  UNL1        0.0038
      9 C           3.8001   -1.3234    0.0000 C.ar    1  UNL1       -0.0231
     10 C           2.9180    1.2181    0.0000 C.3     1  UNL1        0.0285
     11 C           2.0000   -1.3304    0.0000 C.3     1  UNL1       -0.0144
     12 C           4.6501    1.2181    0.0000 C.ar    1  UNL1       -0.0375
     13 C           2.9021   -1.8512    0.0000 C.ar    1  UNL1       -0.0378
     14 C           3.7841    1.7181    0.0000 C.ar    1  UNL1        0.0151
     15 C           4.7520   -1.8440    0.0000 C.ar    1  UNL1       -0.0114
     16 C           3.7680    2.7596    0.0000 C.ar    1  UNL1        0.1661
     17 C           2.8937   -2.9361    0.0000 C.ar    1  UNL1       -0.0130
     18 C           5.5601    1.7249    0.0000 C.ar    1  UNL1       -0.0545
     19 C           4.7688   -2.9289    0.0000 C.ar    1  UNL1        0.1616
     20 C           3.8334   -3.4786    0.0000 C.ar    1  UNL1        0.1587
     21 C           4.6660    3.2874    0.0000 C.ar    1  UNL1        0.1618
     22 C           5.5681    2.7665    0.0000 C.ar    1  UNL1       -0.0160
     23 C           2.8847    4.2495    0.0000 C.3     1  UNL1        0.0790
     24 C           5.6521   -4.4188    0.0000 C.3     1  UNL1        0.0790
     25 C           5.5263    4.7907    0.0000 C.3     1  UNL1        0.0790
     26 H           4.5234   -0.7012    0.0000 H       1  UNL1        0.0516
     27 H           4.8621   -0.3645    0.0000 H       1  UNL1        0.0332
     28 H           5.2607    0.3258    0.0000 H       1  UNL1        0.0332
     29 H           1.8035    0.2965    0.0000 H       1  UNL1        0.0430
     30 H           1.3964   -0.3901    0.0000 H       1  UNL1        0.0430
     31 H           2.7060    1.8007    0.0000 H       1  UNL1        0.0477
     32 H           2.3074    1.1104    0.0000 H       1  UNL1        0.0477
     33 H           1.3900   -1.2196    0.0000 H       1  UNL1        0.0326
     34 H           1.7864   -1.9124    0.0000 H       1  UNL1        0.0326
     35 H           5.2829   -1.5237    0.0000 H       1  UNL1        0.0659
     36 H           2.3556   -3.2441    0.0000 H       1  UNL1        0.0658
     37 H           6.0934    1.4088    0.0000 H       1  UNL1        0.0622
     38 H           6.1062    3.0745    0.0000 H       1  UNL1        0.0655
     39 H           3.3015   -4.7907    0.0000 H       1  UNL1        0.2923
     40 H           3.5046    4.2567    0.0000 H       1  UNL1        0.0660
     41 H           2.8775    4.8694    0.0000 H       1  UNL1        0.0660
     42 H           2.2647    4.2423    0.0000 H       1  UNL1        0.0660
     43 H           5.0321   -4.4260    0.0000 H       1  UNL1        0.0660
     44 H           5.6592   -5.0387    0.0000 H       1  UNL1        0.0660
     45 H           6.2720   -4.4116    0.0000 H       1  UNL1        0.0660
     46 H           5.8383    4.2550    0.0000 H       1  UNL1        0.0660
     47 H           6.0620    5.1028    0.0000 H       1  UNL1        0.0660
     48 H           5.2142    5.3264    0.0000 H       1  UNL1        0.0660
@<TRIPOS>BOND
     1     1    16    1
     2     1    23    1
     3     2    19    1
     4     2    24    1
     5     3    21    1
     6     3    25    1
     7     4    20    1
     8     4    39    1
     9     5     6    1
    10     5     8    1
    11     5    10    1
    12     6     7    1
    13     6     9    1
    14     6    26    1
    15     7    12    1
    16     7    27    1
    17     7    28    1
    18     8    11    1
    19     8    29    1
    20     8    30    1
    21     9    13   ar
    22     9    15   ar
    23    10    14    1
    24    10    31    1
    25    10    32    1
    26    11    13    1
    27    11    33    1
    28    11    34    1
    29    12    14   ar
    30    12    18   ar
    31    13    17   ar
    32    14    16   ar
    33    15    19   ar
    34    15    35    1
    35    16    21   ar
    36    17    20   ar
    37    17    36    1
    38    18    22   ar
    39    18    37    1
    40    19    20   ar
    41    21    22   ar
    42    22    38    1
    43    23    40    1
    44    23    41    1
    45    23    42    1
    46    24    43    1
    47    24    44    1
    48    24    45    1
    49    25    46    1
    50    25    47    1
    51    25    48    1
