@<TRIPOS>MOLECULE
IMPHY009437
 81 85 0 0 0
SMALL
GASTEIGER

@<TRIPOS>ATOM
      1 O           2.5357   -1.9012    0.0000 O.3     1  UNL1       -0.3909
      2 C           7.9288    1.1511    0.0000 C.3     1  UNL1       -0.0230
      3 C           7.9288    0.1511    0.0000 C.3     1  UNL1       -0.0228
      4 C           8.8228    1.6858    0.0000 C.3     1  UNL1       -0.0294
      5 C           9.7288    1.1719    0.0000 C.3     1  UNL1       -0.0256
      6 C           7.0628   -0.3489    0.0000 C.3     1  UNL1       -0.0257
      7 C           6.1968    0.1511    0.0000 C.3     1  UNL1       -0.0219
      8 C           8.8228   -0.3835    0.0000 C.3     1  UNL1       -0.0463
      9 C           7.0628    1.6511    0.0000 C.3     1  UNL1       -0.0463
     10 C           9.7288    0.1303    0.0000 C.3     1  UNL1       -0.0466
     11 C          10.4911    1.8727    0.0000 C.3     1  UNL1       -0.0330
     12 C           6.1968    1.1511    0.0000 C.3     1  UNL1       -0.0463
     13 C           9.0329    2.6997    0.0000 C.3     1  UNL1       -0.0489
     14 C           5.2868   -0.3557    0.0000 C.3     1  UNL1       -0.0136
     15 C          10.0619    2.8150    0.0000 C.3     1  UNL1       -0.0492
     16 C           7.9288    2.1511    0.0000 C.3     1  UNL1       -0.0588
     17 C           7.0789   -1.3904    0.0000 C.3     1  UNL1       -0.0306
     18 C           7.9288   -0.8489    0.0000 C.3     1  UNL1       -0.0588
     19 C          10.5987    0.6786    0.0000 C.3     1  UNL1       -0.0590
     20 C           5.2787   -1.3973    0.0000 C.2     1  UNL1       -0.0618
     21 C           5.3307    0.6511    0.0000 C.3     1  UNL1       -0.0587
     22 C          11.4712    1.6740    0.0000 C.3     1  UNL1       -0.0434
     23 C           4.3599    0.2084    0.0000 C.3     1  UNL1       -0.0436
     24 C           6.1808   -1.9181    0.0000 C.2     1  UNL1       -0.0836
     25 C           4.3433   -1.9470    0.0000 C.3     1  UNL1        0.0123
     26 C           3.4120   -0.3196    0.0000 C.3     1  UNL1       -0.0255
     27 C           3.4037   -1.4046    0.0000 C.3     1  UNL1        0.0640
     28 C          12.1333    2.4234    0.0000 C.3     1  UNL1       -0.0624
     29 C          11.7892    0.7259    0.0000 C.3     1  UNL1       -0.0624
     30 C           3.8467   -2.8150    0.0000 C.3     1  UNL1       -0.0537
     31 C           4.8466   -2.8111    0.0000 C.3     1  UNL1       -0.0537
     32 H           9.5970    2.0365    0.0000 H       1  UNL1        0.0312
     33 H           7.8022   -0.7682    0.0000 H       1  UNL1        0.0315
     34 H           8.4182   -0.8533    0.0000 H       1  UNL1        0.0271
     35 H           9.2164   -0.8626    0.0000 H       1  UNL1        0.0271
     36 H           7.4613    2.1261    0.0000 H       1  UNL1        0.0271
     37 H           6.6643    2.1261    0.0000 H       1  UNL1        0.0271
     38 H           9.9379   -0.4534    0.0000 H       1  UNL1        0.0271
     39 H          10.3397    0.2364    0.0000 H       1  UNL1        0.0271
     40 H          10.8770    2.3580    0.0000 H       1  UNL1        0.0309
     41 H           5.9847    1.7337    0.0000 H       1  UNL1        0.0271
     42 H           5.5862    1.0435    0.0000 H       1  UNL1        0.0271
     43 H           9.0290    3.3197    0.0000 H       1  UNL1        0.0268
     44 H           8.4159    2.7610    0.0000 H       1  UNL1        0.0268
     45 H           6.0179   -0.7892    0.0000 H       1  UNL1        0.0351
     46 H          10.6500    3.0113    0.0000 H       1  UNL1        0.0268
     47 H           9.9285    3.4205    0.0000 H       1  UNL1        0.0268
     48 H           8.5488    2.1511    0.0000 H       1  UNL1        0.0235
     49 H           7.9288    2.7711    0.0000 H       1  UNL1        0.0235
     50 H           7.3088    2.1511    0.0000 H       1  UNL1        0.0235
     51 H           7.2969   -1.9708    0.0000 H       1  UNL1        0.0310
     52 H           7.6880   -1.2749    0.0000 H       1  UNL1        0.0310
     53 H           7.3088   -0.8489    0.0000 H       1  UNL1        0.0235
     54 H           7.9288   -1.4689    0.0000 H       1  UNL1        0.0235
     55 H           8.5488   -0.8489    0.0000 H       1  UNL1        0.0235
     56 H          10.2928    0.1393    0.0000 H       1  UNL1        0.0235
     57 H          11.1380    0.3728    0.0000 H       1  UNL1        0.0235
     58 H          10.9045    1.2179    0.0000 H       1  UNL1        0.0235
     59 H           5.6407    1.1881    0.0000 H       1  UNL1        0.0235
     60 H           4.7938    0.9611    0.0000 H       1  UNL1        0.0235
     61 H           5.0207    0.1142    0.0000 H       1  UNL1        0.0235
     62 H          11.0607    1.2094    0.0000 H       1  UNL1        0.0298
     63 H           4.7681    0.6750    0.0000 H       1  UNL1        0.0272
     64 H           3.9700    0.6904    0.0000 H       1  UNL1        0.0272
     65 H           6.1832   -2.5381    0.0000 H       1  UNL1        0.0572
     66 H           3.2075    0.2657    0.0000 H       1  UNL1        0.0290
     67 H           2.8004   -0.4210    0.0000 H       1  UNL1        0.0290
     68 H           3.4025   -2.0246    0.0000 H       1  UNL1        0.0602
     69 H          12.5979    2.0130    0.0000 H       1  UNL1        0.0232
     70 H          12.5438    2.8881    0.0000 H       1  UNL1        0.0232
     71 H          11.6687    2.8340    0.0000 H       1  UNL1        0.0232
     72 H          11.2014    0.5288    0.0000 H       1  UNL1        0.0232
     73 H          11.9863    0.1381    0.0000 H       1  UNL1        0.0232
     74 H          12.3770    0.9231    0.0000 H       1  UNL1        0.0232
     75 H           3.3085   -2.5071    0.0000 H       1  UNL1        0.0239
     76 H           3.5387   -3.3531    0.0000 H       1  UNL1        0.0239
     77 H           4.3848   -3.1229    0.0000 H       1  UNL1        0.0239
     78 H           4.3109   -3.1232    0.0000 H       1  UNL1        0.0239
     79 H           5.1587   -3.3469    0.0000 H       1  UNL1        0.0239
     80 H           5.3824   -2.4991    0.0000 H       1  UNL1        0.0239
     81 H           2.0000   -1.5891    0.0000 H       1  UNL1        0.2098
@<TRIPOS>BOND
     1    27     1    1
     2     1    81    1
     3     2     3    1
     4     2     4    1
     5     2     9    1
     6     2    16    1
     7     3     6    1
     8     3     8    1
     9     3    18    1
    10     4     5    1
    11     4    13    1
    12     4    32    1
    13     5    10    1
    14     5    11    1
    15     5    19    1
    16     6     7    1
    17     6    17    1
    18     6    33    1
    19     7    12    1
    20     7    14    1
    21     7    21    1
    22     8    10    1
    23     8    34    1
    24     8    35    1
    25     9    12    1
    26     9    36    1
    27     9    37    1
    28    10    38    1
    29    10    39    1
    30    11    15    1
    31    11    22    1
    32    11    40    1
    33    12    41    1
    34    12    42    1
    35    13    15    1
    36    13    43    1
    37    13    44    1
    38    14    20    1
    39    14    23    1
    40    14    45    1
    41    15    46    1
    42    15    47    1
    43    16    48    1
    44    16    49    1
    45    16    50    1
    46    17    24    1
    47    17    51    1
    48    17    52    1
    49    18    53    1
    50    18    54    1
    51    18    55    1
    52    19    56    1
    53    19    57    1
    54    19    58    1
    55    20    24    2
    56    20    25    1
    57    21    59    1
    58    21    60    1
    59    21    61    1
    60    22    28    1
    61    22    29    1
    62    22    62    1
    63    23    26    1
    64    23    63    1
    65    23    64    1
    66    24    65    1
    67    25    27    1
    68    25    30    1
    69    25    31    1
    70    26    27    1
    71    26    66    1
    72    26    67    1
    73    27    68    1
    74    28    69    1
    75    28    70    1
    76    28    71    1
    77    29    72    1
    78    29    73    1
    79    29    74    1
    80    30    75    1
    81    30    76    1
    82    30    77    1
    83    31    78    1
    84    31    79    1
    85    31    80    1
