@<TRIPOS>MOLECULE
IMPHY012332
 69 72 0 0 0
SMALL
GASTEIGER

@<TRIPOS>ATOM
      1 O           7.6977    1.5045    0.0000 O.3     1  UNL1       -0.3380
      2 O           6.6099   -0.8433    0.0000 O.3     1  UNL1       -0.4519
      3 O           9.1922    0.0702    0.0000 O.3     1  UNL1       -0.3772
      4 O           9.4578    1.2258    0.0000 O.3     1  UNL1       -0.3646
      5 O           8.3788   -1.7569    0.0000 O.3     1  UNL1       -0.4579
      6 O           5.7297    2.2039    0.0000 O.3     1  UNL1       -0.4584
      7 O           5.2087    0.1748    0.0000 O.2     1  UNL1       -0.2449
      8 O           6.9775   -2.7749    0.0000 O.2     1  UNL1       -0.2450
      9 O           4.0355    1.8438    0.0000 O.2     1  UNL1       -0.2450
     10 O           5.2533   -4.1839    0.0000 O.3     1  UNL1       -0.5032
     11 O           2.4508   -2.1478    0.0000 O.3     1  UNL1       -0.5032
     12 O           3.2643   -3.9748    0.0000 O.3     1  UNL1       -0.5009
     13 O          11.1367   -4.0794    0.0000 O.3     1  UNL1       -0.5032
     14 O           8.3341   -6.1155    0.0000 O.3     1  UNL1       -0.5032
     15 O           2.4608    5.0873    0.0000 O.3     1  UNL1       -0.5032
     16 O           5.8492    5.8075    0.0000 O.3     1  UNL1       -0.5032
     17 O          10.3232   -5.9065    0.0000 O.3     1  UNL1       -0.5009
     18 O           3.9470    6.4255    0.0000 O.3     1  UNL1       -0.5009
     19 C           8.1977   -0.0343    0.0000 C.3     1  UNL1        0.1898
     20 C           7.1977   -0.0343    0.0000 C.3     1  UNL1        0.1691
     21 C           6.8887    0.9168    0.0000 C.3     1  UNL1        0.1355
     22 C           8.5067    0.9168    0.0000 C.3     1  UNL1        0.1928
     23 C           7.7910   -0.9478    0.0000 C.3     1  UNL1        0.1299
     24 C           5.9376    1.2258    0.0000 C.3     1  UNL1        0.1226
     25 C           5.6154   -0.7388    0.0000 C.2     1  UNL1        0.3399
     26 C           7.9720   -2.6704    0.0000 C.2     1  UNL1        0.3395
     27 C           5.0276   -1.5478    0.0000 C.ar    1  UNL1        0.0661
     28 C           4.7787    2.5129    0.0000 C.2     1  UNL1        0.3395
     29 C           8.5598   -3.4794    0.0000 C.ar    1  UNL1        0.0661
     30 C           4.5708    3.4911    0.0000 C.ar    1  UNL1        0.0661
     31 C           4.0331   -1.4433    0.0000 C.ar    1  UNL1       -0.0023
     32 C           5.4344   -2.4614    0.0000 C.ar    1  UNL1       -0.0023
     33 C           8.1531   -4.3930    0.0000 C.ar    1  UNL1       -0.0023
     34 C           9.5544   -3.3749    0.0000 C.ar    1  UNL1       -0.0023
     35 C           4.8466   -3.2704    0.0000 C.ar    1  UNL1        0.1628
     36 C           3.4453   -2.2523    0.0000 C.ar    1  UNL1        0.1628
     37 C           5.3139    4.1602    0.0000 C.ar    1  UNL1       -0.0023
     38 C           3.6197    3.8001    0.0000 C.ar    1  UNL1       -0.0023
     39 C           3.8521   -3.1658    0.0000 C.ar    1  UNL1        0.2006
     40 C          10.1421   -4.1839    0.0000 C.ar    1  UNL1        0.1628
     41 C           8.7409   -5.2020    0.0000 C.ar    1  UNL1        0.1628
     42 C           3.4118    4.7782    0.0000 C.ar    1  UNL1        0.1628
     43 C           5.1060    5.1384    0.0000 C.ar    1  UNL1        0.1628
     44 C           9.7354   -5.0975    0.0000 C.ar    1  UNL1        0.2006
     45 C           4.1550    5.4474    0.0000 C.ar    1  UNL1        0.2006
     46 H           6.5854    0.0627    0.0000 H       1  UNL1        0.0794
     47 H           6.7917    1.5291    0.0000 H       1  UNL1        0.0669
     48 H           8.6037    1.5291    0.0000 H       1  UNL1        0.0940
     49 H           7.2770   -0.6011    0.0000 H       1  UNL1        0.0730
     50 H           7.3603   -1.3938    0.0000 H       1  UNL1        0.0730
     51 H           5.3180    1.2041    0.0000 H       1  UNL1        0.0725
     52 H           5.8514    0.6118    0.0000 H       1  UNL1        0.0725
     53 H           9.5567   -0.4314    0.0000 H       1  UNL1        0.2107
     54 H           9.5867    1.8322    0.0000 H       1  UNL1        0.2126
     55 H           3.7809   -0.8769    0.0000 H       1  UNL1        0.0663
     56 H           6.0510   -2.5262    0.0000 H       1  UNL1        0.0663
     57 H           7.5365   -4.4578    0.0000 H       1  UNL1        0.0663
     58 H           9.8065   -2.8085    0.0000 H       1  UNL1        0.0663
     59 H           5.9036    3.9686    0.0000 H       1  UNL1        0.0663
     60 H           3.1590    3.3852    0.0000 H       1  UNL1        0.0663
     61 H           4.8889   -4.6855    0.0000 H       1  UNL1        0.2923
     62 H           2.1986   -1.5814    0.0000 H       1  UNL1        0.2923
     63 H           2.6477   -3.9100    0.0000 H       1  UNL1        0.2924
     64 H          11.3888   -3.5130    0.0000 H       1  UNL1        0.2923
     65 H           8.6986   -6.6171    0.0000 H       1  UNL1        0.2923
     66 H           2.0000    4.6724    0.0000 H       1  UNL1        0.2923
     67 H           6.4388    5.6159    0.0000 H       1  UNL1        0.2923
     68 H          10.9398   -5.8417    0.0000 H       1  UNL1        0.2924
     69 H           3.3574    6.6171    0.0000 H       1  UNL1        0.2924
@<TRIPOS>BOND
     1     1    21    1
     2     1    22    1
     3     2    20    1
     4     2    25    1
     5     3    19    1
     6     3    53    1
     7    22     4    1
     8     4    54    1
     9     5    23    1
    10     5    26    1
    11     6    24    1
    12     6    28    1
    13     7    25    2
    14     8    26    2
    15     9    28    2
    16    10    35    1
    17    10    61    1
    18    11    36    1
    19    11    62    1
    20    12    39    1
    21    12    63    1
    22    13    40    1
    23    13    64    1
    24    14    41    1
    25    14    65    1
    26    15    42    1
    27    15    66    1
    28    16    43    1
    29    16    67    1
    30    17    44    1
    31    17    68    1
    32    18    45    1
    33    18    69    1
    34    19    20    1
    35    19    22    1
    36    19    23    1
    37    20    21    1
    38    20    46    1
    39    21    24    1
    40    21    47    1
    41    22    48    1
    42    23    49    1
    43    23    50    1
    44    24    51    1
    45    24    52    1
    46    25    27    1
    47    26    29    1
    48    27    31   ar
    49    27    32   ar
    50    28    30    1
    51    29    33   ar
    52    29    34   ar
    53    30    37   ar
    54    30    38   ar
    55    31    36   ar
    56    31    55    1
    57    32    35   ar
    58    32    56    1
    59    33    41   ar
    60    33    57    1
    61    34    40   ar
    62    34    58    1
    63    35    39   ar
    64    36    39   ar
    65    37    43   ar
    66    37    59    1
    67    38    42   ar
    68    38    60    1
    69    40    44   ar
    70    41    44   ar
    71    42    45   ar
    72    43    45   ar
