@<TRIPOS>MOLECULE
IMPHY008513
 38 41 0 0 0
SMALL
GASTEIGER

@<TRIPOS>ATOM
      1 O           4.3798    0.0240    0.0000 O.2     1  UNL1       -0.4583
      2 O           2.5836   -1.2128    0.0000 O.3     1  UNL1       -0.4489
      3 O           2.5836   -2.8223    0.0000 O.3     1  UNL1       -0.4525
      4 O           7.0321   -1.5207    0.0000 O.2     1  UNL1       -0.2864
      5 O           9.6440    0.0176    0.0000 O.3     1  UNL1       -0.4914
      6 O           9.6517    2.0175    0.0000 O.3     1  UNL1       -0.4915
      7 C           5.2619   -1.5175    0.0000 C.ar    1  UNL1        0.0684
      8 C           4.3958   -1.0175    0.0000 C.ar    1  UNL1        0.1836
      9 C           3.5298   -1.5175    0.0000 C.ar    1  UNL1        0.2088
     10 C           6.1799    0.0309    0.0000 C.ar    1  UNL1        0.0644
     11 C           3.5298   -2.5175    0.0000 C.ar    1  UNL1        0.1700
     12 C           6.1719   -1.0107    0.0000 C.ar    1  UNL1        0.2003
     13 C           7.0479    0.5276    0.0000 C.ar    1  UNL1       -0.0076
     14 C           5.2619   -2.5175    0.0000 C.ar    1  UNL1       -0.0437
     15 C           4.3958   -3.0175    0.0000 C.ar    1  UNL1       -0.0152
     16 C           5.2778    0.5517    0.0000 C.ar    1  UNL1        0.1040
     17 C           2.0000   -2.0175    0.0000 C.3     1  UNL1        0.2334
     18 C           7.9120    0.0242    0.0000 C.ar    1  UNL1       -0.0084
     19 C           7.0517    1.5276    0.0000 C.ar    1  UNL1       -0.0501
     20 C           8.7799    0.5209    0.0000 C.ar    1  UNL1        0.1621
     21 C           8.7838    1.5209    0.0000 C.ar    1  UNL1        0.1615
     22 C           7.9197    2.0242    0.0000 C.ar    1  UNL1       -0.0157
     23 C          10.5119    0.5142    0.0000 C.3     1  UNL1        0.0790
     24 C           9.6556    3.0175    0.0000 C.3     1  UNL1        0.0790
     25 H           5.7988   -2.8275    0.0000 H       1  UNL1        0.0627
     26 H           4.3958   -3.6375    0.0000 H       1  UNL1        0.0655
     27 H           5.2754    1.1717    0.0000 H       1  UNL1        0.1037
     28 H           1.5391   -1.6028    0.0000 H       1  UNL1        0.1166
     29 H           1.5391   -2.4323    0.0000 H       1  UNL1        0.1166
     30 H           7.9096   -0.5958    0.0000 H       1  UNL1        0.0661
     31 H           6.5160    1.8396    0.0000 H       1  UNL1        0.0625
     32 H           7.9220    2.6442    0.0000 H       1  UNL1        0.0655
     33 H          10.8199   -0.0239    0.0000 H       1  UNL1        0.0660
     34 H          11.0501    0.8221    0.0000 H       1  UNL1        0.0660
     35 H          10.2040    1.0523    0.0000 H       1  UNL1        0.0660
     36 H          10.2755    3.0152    0.0000 H       1  UNL1        0.0660
     37 H           9.6579    3.6375    0.0000 H       1  UNL1        0.0660
     38 H           9.0356    3.0199    0.0000 H       1  UNL1        0.0660
@<TRIPOS>BOND
     1     1     8   ar
     2     1    16   ar
     3     2     9    1
     4     2    17    1
     5     3    11    1
     6     3    17    1
     7     4    12    2
     8     5    20    1
     9     5    23    1
    10     6    21    1
    11     6    24    1
    12     7     8   ar
    13     7    12   ar
    14     7    14   ar
    15     8     9   ar
    16     9    11   ar
    17    10    12   ar
    18    10    13    1
    19    10    16   ar
    20    11    15   ar
    21    13    18   ar
    22    13    19   ar
    23    14    15   ar
    24    14    25    1
    25    15    26    1
    26    16    27    1
    27    17    28    1
    28    17    29    1
    29    18    20   ar
    30    18    30    1
    31    19    22   ar
    32    19    31    1
    33    20    21   ar
    34    21    22   ar
    35    22    32    1
    36    23    33    1
    37    23    34    1
    38    23    35    1
    39    24    36    1
    40    24    37    1
    41    24    38    1
