@<TRIPOS>MOLECULE
IMPHY009604
 44 45 0 0 0
SMALL
GASTEIGER

@<TRIPOS>ATOM
      1 O           8.0622    0.1550    0.0000 O.2     1  UNL1       -0.2706
      2 O           4.5981   -2.8450    0.0000 O.3     1  UNL1       -0.3838
      3 O           2.8660   -1.8450    0.0000 O.2     1  UNL1       -0.4967
      4 N           8.9282    1.6550    0.0000 N.am    1  UNL1       -0.2980
      5 C          10.6603    2.6550    0.0000 C.3     1  UNL1       -0.0502
      6 C          10.6603    1.6550    0.0000 C.3     1  UNL1       -0.0371
      7 C           9.7942    3.1550    0.0000 C.3     1  UNL1       -0.0371
      8 C           9.7942    1.1550    0.0000 C.3     1  UNL1        0.0150
      9 C           8.9282    2.6550    0.0000 C.3     1  UNL1        0.0150
     10 C           8.0622    1.1550    0.0000 C.2     1  UNL1        0.2394
     11 C           4.5981   -1.8450    0.0000 C.3     1  UNL1        0.1154
     12 C           5.4641   -1.3450    0.0000 C.3     1  UNL1       -0.0007
     13 C           7.1962    1.6550    0.0000 C.2     1  UNL1        0.0003
     14 C           3.7320   -1.3450    0.0000 C.2     1  UNL1        0.1264
     15 C           4.5981    0.1550    0.0000 C.2     1  UNL1       -0.0256
     16 C           5.4641   -0.3450    0.0000 C.2     1  UNL1       -0.0739
     17 C           3.7320   -0.3450    0.0000 C.2     1  UNL1       -0.0147
     18 C           6.3301    1.1550    0.0000 C.2     1  UNL1       -0.0568
     19 C           4.5981    1.1550    0.0000 C.2     1  UNL1       -0.0548
     20 C           5.4641    1.6550    0.0000 C.2     1  UNL1       -0.0611
     21 C           2.0000   -1.3450    0.0000 C.3     1  UNL1        0.0785
     22 H          11.2708    2.5473    0.0000 H       1  UNL1        0.0266
     23 H          10.8723    3.2376    0.0000 H       1  UNL1        0.0266
     24 H          10.1928    3.6300    0.0000 H       1  UNL1        0.0280
     25 H           9.3957    3.6300    0.0000 H       1  UNL1        0.0280
     26 H          10.8723    1.0724    0.0000 H       1  UNL1        0.0280
     27 H          11.2708    1.7627    0.0000 H       1  UNL1        0.0280
     28 H           9.3957    0.6801    0.0000 H       1  UNL1        0.0464
     29 H          10.1928    0.6801    0.0000 H       1  UNL1        0.0464
     30 H           8.7162    3.2376    0.0000 H       1  UNL1        0.0464
     31 H           8.3176    2.5473    0.0000 H       1  UNL1        0.0464
     32 H           5.1350   -2.1550    0.0000 H       1  UNL1        0.0677
     33 H           5.6762   -1.9276    0.0000 H       1  UNL1        0.0337
     34 H           6.0747   -1.2373    0.0000 H       1  UNL1        0.0337
     35 H           7.1962    2.2750    0.0000 H       1  UNL1        0.0669
     36 H           6.0010   -0.0350    0.0000 H       1  UNL1        0.0579
     37 H           3.1951   -0.0350    0.0000 H       1  UNL1        0.0657
     38 H           6.3301    0.5350    0.0000 H       1  UNL1        0.0619
     39 H           4.0611    1.4650    0.0000 H       1  UNL1        0.0623
     40 H           5.4641    2.2750    0.0000 H       1  UNL1        0.0618
     41 H           5.1350   -3.1550    0.0000 H       1  UNL1        0.2104
     42 H           2.3100   -0.8081    0.0000 H       1  UNL1        0.0660
     43 H           1.4631   -1.0350    0.0000 H       1  UNL1        0.0660
     44 H           1.6900   -1.8819    0.0000 H       1  UNL1        0.0660
@<TRIPOS>BOND
     1     1    10    2
     2     2    11    1
     3     2    41    1
     4     3    14    1
     5     3    21    1
     6     4     8    1
     7     4     9    1
     8     4    10   am
     9     5     6    1
    10     5     7    1
    11     5    22    1
    12     5    23    1
    13     6     8    1
    14     6    26    1
    15     6    27    1
    16     7     9    1
    17     7    24    1
    18     7    25    1
    19     8    28    1
    20     8    29    1
    21     9    30    1
    22     9    31    1
    23    10    13    1
    24    11    12    1
    25    11    14    1
    26    11    32    1
    27    12    16    1
    28    12    33    1
    29    12    34    1
    30    13    18    2
    31    13    35    1
    32    14    17    2
    33    15    16    2
    34    15    17    1
    35    15    19    1
    36    16    36    1
    37    17    37    1
    38    18    20    1
    39    18    38    1
    40    19    20    2
    41    19    39    1
    42    20    40    1
    43    21    42    1
    44    21    43    1
    45    21    44    1
