@<TRIPOS>MOLECULE
IMPHY001730
 81 85 0 0 0
SMALL
GASTEIGER

@<TRIPOS>ATOM
      1 O           5.6591    1.8628    0.0000 O.2     1  UNL1       -0.2971
      2 C           5.6591   -1.1372    0.0000 C.3     1  UNL1       -0.0223
      3 C           6.5251   -0.6372    0.0000 C.3     1  UNL1       -0.0166
      4 C           4.7931   -0.6372    0.0000 C.3     1  UNL1       -0.0228
      5 C           6.5251    0.3628    0.0000 C.3     1  UNL1        0.0270
      6 C           7.4191    0.8974    0.0000 C.3     1  UNL1       -0.0225
      7 C           3.8831   -1.1441    0.0000 C.3     1  UNL1       -0.0250
      8 C           8.3252    0.3836    0.0000 C.3     1  UNL1       -0.0283
      9 C           3.8751   -2.1857    0.0000 C.3     1  UNL1       -0.0302
     10 C           7.4191   -1.1719    0.0000 C.3     1  UNL1       -0.0460
     11 C           5.6752   -2.1788    0.0000 C.3     1  UNL1       -0.0465
     12 C           7.6292    1.9113    0.0000 C.3     1  UNL1       -0.0347
     13 C           4.7931    0.3628    0.0000 C.3     1  UNL1        0.0100
     14 C           8.3252   -0.6581    0.0000 C.3     1  UNL1       -0.0468
     15 C           4.7771   -2.7065    0.0000 C.3     1  UNL1       -0.0487
     16 C           5.6591    0.8628    0.0000 C.2     1  UNL1        0.1375
     17 C           2.9396   -2.7354    0.0000 C.3     1  UNL1       -0.0315
     18 C           9.0875    1.0843    0.0000 C.3     1  UNL1       -0.0471
     19 C           2.9562   -0.5800    0.0000 C.3     1  UNL1       -0.0471
     20 C           6.3019   -1.9033    0.0000 C.3     1  UNL1       -0.0588
     21 C           6.8672   -1.5769    0.0000 C.3     1  UNL1       -0.0584
     22 C           8.6582    2.0266    0.0000 C.3     1  UNL1       -0.0492
     23 C           3.8908   -0.1441    0.0000 C.3     1  UNL1       -0.0590
     24 C           2.0000   -2.1929    0.0000 C.3     1  UNL1       -0.0476
     25 C           9.1950   -0.1097    0.0000 C.3     1  UNL1       -0.0593
     26 C           2.0084   -1.1080    0.0000 C.3     1  UNL1       -0.0521
     27 C           6.9556    2.6505    0.0000 C.3     1  UNL1       -0.0436
     28 C           2.4430   -3.6034    0.0000 C.3     1  UNL1       -0.0595
     29 C           3.4430   -3.5995    0.0000 C.3     1  UNL1       -0.0595
     30 C           7.2590    3.6034    0.0000 C.3     1  UNL1       -0.0624
     31 C           5.9787    2.4367    0.0000 C.3     1  UNL1       -0.0624
     32 H           5.5292   -0.2122    0.0000 H       1  UNL1        0.0316
     33 H           6.5186    1.2127    0.0000 H       1  UNL1        0.0386
     34 H           6.7263    1.3900    0.0000 H       1  UNL1        0.0316
     35 H           3.8783   -3.0357    0.0000 H       1  UNL1        0.0311
     36 H           7.0145   -1.6417    0.0000 H       1  UNL1        0.0271
     37 H           7.8127   -1.6509    0.0000 H       1  UNL1        0.0271
     38 H           5.8932   -2.7592    0.0000 H       1  UNL1        0.0271
     39 H           6.2843   -2.0632    0.0000 H       1  UNL1        0.0271
     40 H           7.8477    2.4916    0.0000 H       1  UNL1        0.0306
     41 H           4.5810    0.9454    0.0000 H       1  UNL1        0.0345
     42 H           4.1825    0.2551    0.0000 H       1  UNL1        0.0345
     43 H           8.5342   -1.2418    0.0000 H       1  UNL1        0.0271
     44 H           8.9360   -0.5520    0.0000 H       1  UNL1        0.0271
     45 H           4.3798   -3.1825    0.0000 H       1  UNL1        0.0268
     46 H           5.1781   -3.1794    0.0000 H       1  UNL1        0.0268
     47 H           9.4568    0.5863    0.0000 H       1  UNL1        0.0271
     48 H           9.6215    1.3992    0.0000 H       1  UNL1        0.0271
     49 H           3.3645   -0.1134    0.0000 H       1  UNL1        0.0271
     50 H           2.5663   -0.0980    0.0000 H       1  UNL1        0.0271
     51 H           5.8270   -2.3018    0.0000 H       1  UNL1        0.0235
     52 H           6.7004   -2.3782    0.0000 H       1  UNL1        0.0235
     53 H           6.7768   -1.5048    0.0000 H       1  UNL1        0.0235
     54 H           6.2847   -1.7890    0.0000 H       1  UNL1        0.0235
     55 H           7.0794   -2.1595    0.0000 H       1  UNL1        0.0235
     56 H           7.4498   -1.3648    0.0000 H       1  UNL1        0.0235
     57 H           9.2463    2.2229    0.0000 H       1  UNL1        0.0268
     58 H           8.5248    2.6321    0.0000 H       1  UNL1        0.0268
     59 H           4.5108   -0.1489    0.0000 H       1  UNL1        0.0235
     60 H           3.8956    0.4759    0.0000 H       1  UNL1        0.0235
     61 H           3.2708   -0.1393    0.0000 H       1  UNL1        0.0235
     62 H           1.3900   -2.0821    0.0000 H       1  UNL1        0.0271
     63 H           1.7864   -2.7750    0.0000 H       1  UNL1        0.0271
     64 H           8.8892   -0.6490    0.0000 H       1  UNL1        0.0235
     65 H           9.7343   -0.4156    0.0000 H       1  UNL1        0.0235
     66 H           9.5008    0.4296    0.0000 H       1  UNL1        0.0235
     67 H           1.8038   -0.5227    0.0000 H       1  UNL1        0.0266
     68 H           1.3967   -1.2093    0.0000 H       1  UNL1        0.0266
     69 H           6.5380    3.1087    0.0000 H       1  UNL1        0.0298
     70 H           2.9072   -3.9116    0.0000 H       1  UNL1        0.0235
     71 H           3.7550   -4.1352    0.0000 H       1  UNL1        0.0235
     72 H           3.9787   -3.2874    0.0000 H       1  UNL1        0.0235
     73 H           1.9048   -3.2954    0.0000 H       1  UNL1        0.0235
     74 H           2.1350   -4.1415    0.0000 H       1  UNL1        0.0235
     75 H           2.9811   -3.9113    0.0000 H       1  UNL1        0.0235
     76 H           5.8462    3.0424    0.0000 H       1  UNL1        0.0232
     77 H           5.3731    2.3042    0.0000 H       1  UNL1        0.0232
     78 H           6.1113    1.8310    0.0000 H       1  UNL1        0.0232
     79 H           7.8497    3.4153    0.0000 H       1  UNL1        0.0232
     80 H           7.4470    4.1941    0.0000 H       1  UNL1        0.0232
     81 H           6.6682    3.7914    0.0000 H       1  UNL1        0.0232
@<TRIPOS>BOND
     1     1    16    2
     2     2     3    1
     3     2     4    1
     4     2    11    1
     5     2    20    1
     6     3     5    1
     7     3    10    1
     8     3    21    1
     9     4     7    1
    10     4    13    1
    11     4    32    1
    12     5     6    1
    13     5    16    1
    14     5    33    1
    15     6     8    1
    16     6    12    1
    17     6    34    1
    18     7     9    1
    19     7    19    1
    20     7    23    1
    21     8    14    1
    22     8    18    1
    23     8    25    1
    24     9    15    1
    25     9    17    1
    26     9    35    1
    27    10    14    1
    28    10    36    1
    29    10    37    1
    30    11    15    1
    31    11    38    1
    32    11    39    1
    33    12    22    1
    34    12    27    1
    35    12    40    1
    36    13    16    1
    37    13    41    1
    38    13    42    1
    39    14    43    1
    40    14    44    1
    41    15    45    1
    42    15    46    1
    43    17    24    1
    44    17    28    1
    45    17    29    1
    46    18    22    1
    47    18    47    1
    48    18    48    1
    49    19    26    1
    50    19    49    1
    51    19    50    1
    52    20    51    1
    53    20    52    1
    54    20    53    1
    55    21    54    1
    56    21    55    1
    57    21    56    1
    58    22    57    1
    59    22    58    1
    60    23    59    1
    61    23    60    1
    62    23    61    1
    63    24    26    1
    64    24    62    1
    65    24    63    1
    66    25    64    1
    67    25    65    1
    68    25    66    1
    69    26    67    1
    70    26    68    1
    71    27    30    1
    72    27    31    1
    73    27    69    1
    74    28    73    1
    75    28    74    1
    76    28    75    1
    77    29    70    1
    78    29    71    1
    79    29    72    1
    80    30    79    1
    81    30    80    1
    82    30    81    1
    83    31    76    1
    84    31    77    1
    85    31    78    1
