@<TRIPOS>MOLECULE
IMPHY001652
 42 42 0 0 0
SMALL
GASTEIGER

@<TRIPOS>ATOM
      1 O           7.0113   -1.5727    0.0000 O.3     1  UNL1       -0.3885
      2 C           6.1574   -1.0523    0.0000 C.3     1  UNL1        0.0667
      3 C           2.9595    0.0726    0.0000 C.3     1  UNL1       -0.0135
      4 C           5.6574   -0.1863    0.0000 C.3     1  UNL1       -0.0237
      5 C           5.2914   -1.5523    0.0000 C.3     1  UNL1       -0.0060
      6 C           6.1574    0.6798    0.0000 C.3     1  UNL1       -0.0468
      7 C           2.9595    1.0726    0.0000 C.3     1  UNL1       -0.0259
      8 C           5.5576    1.5726    0.0000 C.3     1  UNL1       -0.0319
      9 C           3.8255   -0.4274    0.0000 C.2     1  UNL1       -0.0819
     10 C           4.3255   -1.2935    0.0000 C.2     1  UNL1       -0.0847
     11 C           7.0113   -0.5318    0.0000 C.3     1  UNL1       -0.0358
     12 C           4.6915    1.0726    0.0000 C.2     1  UNL1       -0.0765
     13 C           3.8255    1.5726    0.0000 C.2     1  UNL1       -0.0842
     14 C           2.0000    0.3544    0.0000 C.3     1  UNL1       -0.0561
     15 C           2.2694   -0.6512    0.0000 C.3     1  UNL1       -0.0561
     16 C           5.0336    0.1329    0.0000 C.3     1  UNL1       -0.0438
     17 H           5.1825    0.2123    0.0000 H       1  UNL1        0.0293
     18 H           5.1825   -0.5848    0.0000 H       1  UNL1        0.0293
     19 H           4.9814   -2.0892    0.0000 H       1  UNL1        0.0335
     20 H           5.7298   -1.9907    0.0000 H       1  UNL1        0.0335
     21 H           6.6413    0.2921    0.0000 H       1  UNL1        0.0269
     22 H           6.6138    1.0994    0.0000 H       1  UNL1        0.0269
     23 H           2.7474    1.6552    0.0000 H       1  UNL1        0.0316
     24 H           2.3489    0.9649    0.0000 H       1  UNL1        0.0316
     25 H           6.0799    1.9066    0.0000 H       1  UNL1        0.0310
     26 H           5.2354    2.1023    0.0000 H       1  UNL1        0.0310
     27 H           4.3874   -0.1654    0.0000 H       1  UNL1        0.0574
     28 H           3.9481   -1.7853    0.0000 H       1  UNL1        0.0570
     29 H           7.3340   -1.0612    0.0000 H       1  UNL1        0.0257
     30 H           7.5407   -0.2091    0.0000 H       1  UNL1        0.0257
     31 H           6.6886   -0.0024    0.0000 H       1  UNL1        0.0257
     32 H           3.8255    2.1926    0.0000 H       1  UNL1        0.0572
     33 H           1.8207   -0.2233    0.0000 H       1  UNL1        0.0238
     34 H           1.8415   -1.0999    0.0000 H       1  UNL1        0.0238
     35 H           2.7181   -1.0790    0.0000 H       1  UNL1        0.0238
     36 H           2.1747    0.9492    0.0000 H       1  UNL1        0.0238
     37 H           1.4051    0.5291    0.0000 H       1  UNL1        0.0238
     38 H           1.8253   -0.2405    0.0000 H       1  UNL1        0.0238
     39 H           6.9966   -2.1926    0.0000 H       1  UNL1        0.2102
     40 H           4.4511   -0.0792    0.0000 H       1  UNL1        0.0274
     41 H           5.2458   -0.4497    0.0000 H       1  UNL1        0.0274
     42 H           5.6162    0.3450    0.0000 H       1  UNL1        0.0274
@<TRIPOS>BOND
     1     1     2    1
     2     1    39    1
     3     2     4    1
     4     2     5    1
     5     2    11    1
     6     3     7    1
     7     3     9    1
     8     3    14    1
     9     3    15    1
    10     4     6    1
    11     4    17    1
    12     4    18    1
    13     5    10    1
    14     5    19    1
    15     5    20    1
    16     6     8    1
    17     6    21    1
    18     6    22    1
    19     7    13    1
    20     7    23    1
    21     7    24    1
    22     8    12    1
    23     8    25    1
    24     8    26    1
    25     9    10    2
    26     9    27    1
    27    10    28    1
    28    11    29    1
    29    11    30    1
    30    11    31    1
    31    12    13    2
    32    12    16    1
    33    13    32    1
    34    14    36    1
    35    14    37    1
    36    14    38    1
    37    15    33    1
    38    15    34    1
    39    15    35    1
    40    16    40    1
    41    16    41    1
    42    16    42    1
