@<TRIPOS>MOLECULE
IMPHY009819
 72 72 0 0 0
SMALL
GASTEIGER

@<TRIPOS>ATOM
      1 O           3.8660   -8.0950    0.0000 O.3     1  UNL1       -0.3914
      2 O          11.6603    8.4050    0.0000 O.2     1  UNL1       -0.2960
      3 C           3.0000   -5.5950    0.0000 C.3     1  UNL1       -0.0076
      4 C           3.0000   -6.5950    0.0000 C.3     1  UNL1       -0.0174
      5 C           3.8660   -7.0950    0.0000 C.3     1  UNL1        0.0597
      6 C           3.8660   -5.0950    0.0000 C.2     1  UNL1       -0.0426
      7 C           4.7320   -6.5950    0.0000 C.3     1  UNL1       -0.0053
      8 C           4.7320   -5.5950    0.0000 C.2     1  UNL1       -0.0665
      9 C           2.0000   -5.5950    0.0000 C.3     1  UNL1       -0.0557
     10 C           2.5000   -4.7290    0.0000 C.3     1  UNL1       -0.0557
     11 C           3.8660   -4.0950    0.0000 C.2     1  UNL1       -0.0579
     12 C           5.5981   -5.0950    0.0000 C.3     1  UNL1       -0.0431
     13 C           4.7320   -3.5950    0.0000 C.2     1  UNL1       -0.0586
     14 C           4.7320   -2.5950    0.0000 C.2     1  UNL1       -0.0504
     15 C           3.8660   -2.0950    0.0000 C.3     1  UNL1       -0.0397
     16 C           5.5981   -2.0950    0.0000 C.2     1  UNL1       -0.0588
     17 C           5.5981   -1.0950    0.0000 C.2     1  UNL1       -0.0613
     18 C           6.4641   -0.5950    0.0000 C.2     1  UNL1       -0.0588
     19 C           6.4641    0.4050    0.0000 C.2     1  UNL1       -0.0504
     20 C           5.5981    0.9050    0.0000 C.3     1  UNL1       -0.0397
     21 C           7.3301    0.9050    0.0000 C.2     1  UNL1       -0.0588
     22 C           7.3301    1.9050    0.0000 C.2     1  UNL1       -0.0615
     23 C           8.1962    2.4050    0.0000 C.2     1  UNL1       -0.0615
     24 C           8.1962    3.4050    0.0000 C.2     1  UNL1       -0.0588
     25 C           9.0622    3.9050    0.0000 C.2     1  UNL1       -0.0504
     26 C           9.0622    4.9050    0.0000 C.2     1  UNL1       -0.0588
     27 C           9.9282    3.4050    0.0000 C.3     1  UNL1       -0.0397
     28 C           9.9282    5.4050    0.0000 C.2     1  UNL1       -0.0612
     29 C           9.9282    6.4050    0.0000 C.2     1  UNL1       -0.0558
     30 C          10.7942    6.9050    0.0000 C.2     1  UNL1       -0.0113
     31 C          11.6603    6.4050    0.0000 C.3     1  UNL1       -0.0367
     32 C          10.7942    7.9050    0.0000 C.2     1  UNL1        0.1460
     33 H           2.3894   -6.4873    0.0000 H       1  UNL1        0.0298
     34 H           2.7880   -7.1776    0.0000 H       1  UNL1        0.0298
     35 H           4.4030   -7.4050    0.0000 H       1  UNL1        0.0596
     36 H           4.9441   -7.1776    0.0000 H       1  UNL1        0.0335
     37 H           5.3426   -6.4873    0.0000 H       1  UNL1        0.0335
     38 H           2.0000   -4.9750    0.0000 H       1  UNL1        0.0238
     39 H           1.3800   -5.5950    0.0000 H       1  UNL1        0.0238
     40 H           2.0000   -6.2150    0.0000 H       1  UNL1        0.0238
     41 H           3.0369   -4.4190    0.0000 H       1  UNL1        0.0238
     42 H           2.1900   -4.1920    0.0000 H       1  UNL1        0.0238
     43 H           1.9631   -5.0390    0.0000 H       1  UNL1        0.0238
     44 H           3.3291   -3.7850    0.0000 H       1  UNL1        0.0621
     45 H           5.9081   -5.6319    0.0000 H       1  UNL1        0.0275
     46 H           6.1350   -4.7850    0.0000 H       1  UNL1        0.0275
     47 H           5.2881   -4.5581    0.0000 H       1  UNL1        0.0275
     48 H           4.4030   -8.4050    0.0000 H       1  UNL1        0.2098
     49 H           5.2690   -3.9050    0.0000 H       1  UNL1        0.0620
     50 H           4.1760   -1.5581    0.0000 H       1  UNL1        0.0278
     51 H           3.3291   -1.7850    0.0000 H       1  UNL1        0.0278
     52 H           3.5560   -2.6319    0.0000 H       1  UNL1        0.0278
     53 H           6.1350   -2.4050    0.0000 H       1  UNL1        0.0620
     54 H           5.0611   -0.7850    0.0000 H       1  UNL1        0.0618
     55 H           7.0010   -0.9050    0.0000 H       1  UNL1        0.0620
     56 H           5.9081    1.4419    0.0000 H       1  UNL1        0.0278
     57 H           5.0611    1.2150    0.0000 H       1  UNL1        0.0278
     58 H           5.2881    0.3681    0.0000 H       1  UNL1        0.0278
     59 H           7.8671    0.5950    0.0000 H       1  UNL1        0.0620
     60 H           6.7932    2.2150    0.0000 H       1  UNL1        0.0618
     61 H           8.7331    2.0950    0.0000 H       1  UNL1        0.0618
     62 H           7.6592    3.7150    0.0000 H       1  UNL1        0.0620
     63 H           8.5252    5.2150    0.0000 H       1  UNL1        0.0620
     64 H           9.6182    2.8681    0.0000 H       1  UNL1        0.0278
     65 H          10.4651    3.0950    0.0000 H       1  UNL1        0.0278
     66 H          10.2382    3.9419    0.0000 H       1  UNL1        0.0278
     67 H          10.4651    5.0950    0.0000 H       1  UNL1        0.0618
     68 H           9.3913    6.7150    0.0000 H       1  UNL1        0.0621
     69 H          11.3503    5.8681    0.0000 H       1  UNL1        0.0278
     70 H          12.1972    6.0950    0.0000 H       1  UNL1        0.0278
     71 H          11.9703    6.9419    0.0000 H       1  UNL1        0.0278
     72 H          10.2573    8.2150    0.0000 H       1  UNL1        0.1078
@<TRIPOS>BOND
     1     5     1    1
     2     1    48    1
     3     2    32    2
     4     3     4    1
     5     3     6    1
     6     3     9    1
     7     3    10    1
     8     4     5    1
     9     4    33    1
    10     4    34    1
    11     5     7    1
    12     5    35    1
    13     6     8    2
    14     6    11    1
    15     7     8    1
    16     7    36    1
    17     7    37    1
    18     8    12    1
    19     9    38    1
    20     9    39    1
    21     9    40    1
    22    10    41    1
    23    10    42    1
    24    10    43    1
    25    11    13    2
    26    11    44    1
    27    12    45    1
    28    12    46    1
    29    12    47    1
    30    13    14    1
    31    13    49    1
    32    14    15    1
    33    14    16    2
    34    15    50    1
    35    15    51    1
    36    15    52    1
    37    16    17    1
    38    16    53    1
    39    17    18    2
    40    17    54    1
    41    18    19    1
    42    18    55    1
    43    19    20    1
    44    19    21    2
    45    20    56    1
    46    20    57    1
    47    20    58    1
    48    21    22    1
    49    21    59    1
    50    22    23    2
    51    22    60    1
    52    23    24    1
    53    23    61    1
    54    24    25    2
    55    24    62    1
    56    25    26    1
    57    25    27    1
    58    26    28    2
    59    26    63    1
    60    27    64    1
    61    27    65    1
    62    27    66    1
    63    28    29    1
    64    28    67    1
    65    29    30    2
    66    29    68    1
    67    30    31    1
    68    30    32    1
    69    31    69    1
    70    31    70    1
    71    31    71    1
    72    32    72    1
