@<TRIPOS>MOLECULE
IMPHY016542
 37 37 0 0 0
SMALL
GASTEIGER

@<TRIPOS>ATOM
      1 O           5.5981    3.0000    0.0000 O.2     1  UNL1       -0.2961
      2 C           3.0000   -1.5000    0.0000 C.3     1  UNL1       -0.0133
      3 C           3.0000   -2.5000    0.0000 C.3     1  UNL1       -0.0439
      4 C           3.8660   -1.0000    0.0000 C.2     1  UNL1       -0.0612
      5 C           3.8660   -3.0000    0.0000 C.3     1  UNL1       -0.0486
      6 C           4.7320   -2.5000    0.0000 C.3     1  UNL1       -0.0317
      7 C           4.7320   -1.5000    0.0000 C.2     1  UNL1       -0.0726
      8 C           2.0000   -1.5000    0.0000 C.3     1  UNL1       -0.0561
      9 C           2.5000   -0.6340    0.0000 C.3     1  UNL1       -0.0561
     10 C           3.8660    0.0000    0.0000 C.3     1  UNL1       -0.0121
     11 C           5.5981   -1.0000    0.0000 C.3     1  UNL1       -0.0435
     12 C           4.7320    0.5000    0.0000 C.2     1  UNL1       -0.0740
     13 C           4.7320    1.5000    0.0000 C.2     1  UNL1       -0.0149
     14 C           3.8660    2.0000    0.0000 C.3     1  UNL1       -0.0370
     15 C           5.5981    2.0000    0.0000 C.2     1  UNL1        0.1457
     16 H           2.3894   -2.3923    0.0000 H       1  UNL1        0.0274
     17 H           2.7880   -3.0826    0.0000 H       1  UNL1        0.0274
     18 H           3.4675   -3.4750    0.0000 H       1  UNL1        0.0269
     19 H           4.2646   -3.4750    0.0000 H       1  UNL1        0.0269
     20 H           4.9441   -3.0826    0.0000 H       1  UNL1        0.0310
     21 H           5.3426   -2.3923    0.0000 H       1  UNL1        0.0310
     22 H           2.0000   -0.8800    0.0000 H       1  UNL1        0.0238
     23 H           1.3800   -1.5000    0.0000 H       1  UNL1        0.0238
     24 H           2.0000   -2.1200    0.0000 H       1  UNL1        0.0238
     25 H           3.0369   -0.3240    0.0000 H       1  UNL1        0.0238
     26 H           2.1900   -0.0970    0.0000 H       1  UNL1        0.0238
     27 H           1.9631   -0.9440    0.0000 H       1  UNL1        0.0238
     28 H           3.6540    0.5826    0.0000 H       1  UNL1        0.0353
     29 H           3.2554   -0.1077    0.0000 H       1  UNL1        0.0353
     30 H           5.9081   -1.5369    0.0000 H       1  UNL1        0.0274
     31 H           6.1350   -0.6900    0.0000 H       1  UNL1        0.0274
     32 H           5.2881   -0.4631    0.0000 H       1  UNL1        0.0274
     33 H           5.2690    0.1900    0.0000 H       1  UNL1        0.0579
     34 H           4.1760    2.5369    0.0000 H       1  UNL1        0.0278
     35 H           3.3291    2.3100    0.0000 H       1  UNL1        0.0278
     36 H           3.5560    1.4631    0.0000 H       1  UNL1        0.0278
     37 H           6.1350    1.6900    0.0000 H       1  UNL1        0.1078
@<TRIPOS>BOND
     1     1    15    2
     2     2     3    1
     3     2     4    1
     4     2     8    1
     5     2     9    1
     6     3     5    1
     7     3    16    1
     8     3    17    1
     9     4     7    2
    10     4    10    1
    11     5     6    1
    12     5    18    1
    13     5    19    1
    14     6     7    1
    15     6    20    1
    16     6    21    1
    17     7    11    1
    18     8    22    1
    19     8    23    1
    20     8    24    1
    21     9    25    1
    22     9    26    1
    23     9    27    1
    24    10    12    1
    25    10    28    1
    26    10    29    1
    27    11    30    1
    28    11    31    1
    29    11    32    1
    30    12    13    2
    31    12    33    1
    32    13    14    1
    33    13    15    1
    34    14    34    1
    35    14    35    1
    36    14    36    1
    37    15    37    1
