@<TRIPOS>MOLECULE
IMPHY003353
 52 54 0 0 0
SMALL
GASTEIGER

@<TRIPOS>ATOM
      1 O           6.8671   -1.0950    0.0000 O.3     1  UNL1       -0.3092
      2 O           6.0010    0.4050    0.0000 O.2     1  UNL1       -0.4697
      3 O           7.7331    2.4050    0.0000 O.3     1  UNL1       -0.3825
      4 O           5.1350   -1.0950    0.0000 O.3     1  UNL1       -0.3404
      5 O           6.8671   -3.0950    0.0000 O.3     1  UNL1       -0.3841
      6 O           5.1350   -4.0950    0.0000 O.3     1  UNL1       -0.3864
      7 O           3.4030   -3.0950    0.0000 O.3     1  UNL1       -0.3865
      8 O           9.9685   -1.0565    0.0000 O.3     1  UNL1       -0.3907
      9 O           6.0010    3.4050    0.0000 O.3     1  UNL1       -0.4645
     10 O           2.5369   -1.5950    0.0000 O.3     1  UNL1       -0.3924
     11 O           7.7331    3.4050    0.0000 O.2     1  UNL1       -0.2451
     12 C           7.7331    0.4050    0.0000 C.3     1  UNL1        0.0783
     13 C           7.7331    1.4050    0.0000 C.3     1  UNL1        0.1161
     14 C           6.8671   -0.0950    0.0000 C.3     1  UNL1        0.2130
     15 C           8.6793    1.7097    0.0000 C.3     1  UNL1       -0.0001
     16 C           8.6793    0.1003    0.0000 C.2     1  UNL1       -0.0363
     17 C           6.8671    1.9050    0.0000 C.2     1  UNL1        0.1029
     18 C           9.2629    0.9050    0.0000 C.2     1  UNL1       -0.0790
     19 C           6.0010   -1.5950    0.0000 C.3     1  UNL1        0.1918
     20 C           6.0010   -2.5950    0.0000 C.3     1  UNL1        0.1342
     21 C           5.1350   -3.0950    0.0000 C.3     1  UNL1        0.1141
     22 C           4.2690   -2.5950    0.0000 C.3     1  UNL1        0.1119
     23 C           4.2690   -1.5950    0.0000 C.3     1  UNL1        0.1130
     24 C           8.9900   -0.8503    0.0000 C.3     1  UNL1        0.0659
     25 C           6.0010    1.4050    0.0000 C.2     1  UNL1        0.1007
     26 C           6.8671    2.9050    0.0000 C.2     1  UNL1        0.3407
     27 C           3.4030   -1.0950    0.0000 C.3     1  UNL1        0.0730
     28 C           6.0010    4.4050    0.0000 C.3     1  UNL1        0.0820
     29 H           7.8230   -0.4402    0.0000 H       1  UNL1        0.0439
     30 H           7.4040   -0.4050    0.0000 H       1  UNL1        0.1063
     31 H           9.2167    2.0190    0.0000 H       1  UNL1        0.0339
     32 H           8.4283    2.2766    0.0000 H       1  UNL1        0.0339
     33 H           9.8829    0.9050    0.0000 H       1  UNL1        0.0573
     34 H           6.0010   -0.9750    0.0000 H       1  UNL1        0.0939
     35 H           6.0010   -3.2150    0.0000 H       1  UNL1        0.0671
     36 H           4.5981   -3.4050    0.0000 H       1  UNL1        0.0648
     37 H           3.7320   -2.2850    0.0000 H       1  UNL1        0.0647
     38 H           4.2690   -0.9750    0.0000 H       1  UNL1        0.0647
     39 H           8.3762   -0.9376    0.0000 H       1  UNL1        0.0604
     40 H           8.9694   -1.4699    0.0000 H       1  UNL1        0.0604
     41 H           5.4641    1.7150    0.0000 H       1  UNL1        0.1030
     42 H           8.2700    2.7150    0.0000 H       1  UNL1        0.2107
     43 H           3.8015   -0.6201    0.0000 H       1  UNL1        0.0584
     44 H           3.0044   -0.6201    0.0000 H       1  UNL1        0.0584
     45 H           6.8671   -3.7150    0.0000 H       1  UNL1        0.2101
     46 H           4.5981   -4.4050    0.0000 H       1  UNL1        0.2100
     47 H           3.4030   -3.7150    0.0000 H       1  UNL1        0.2100
     48 H          10.1611   -1.6458    0.0000 H       1  UNL1        0.2098
     49 H           2.0000   -1.2850    0.0000 H       1  UNL1        0.2095
     50 H           6.6210    4.4050    0.0000 H       1  UNL1        0.0661
     51 H           6.0010    5.0250    0.0000 H       1  UNL1        0.0661
     52 H           5.3810    4.4050    0.0000 H       1  UNL1        0.0661
@<TRIPOS>BOND
     1    14     1    1
     2    19     1    1
     3     2    14    1
     4     2    25    1
     5    13     3    1
     6     3    42    1
     7     4    19    1
     8     4    23    1
     9    20     5    1
    10     5    45    1
    11    21     6    1
    12     6    46    1
    13    22     7    1
    14     7    47    1
    15     8    24    1
    16     8    48    1
    17     9    26    1
    18     9    28    1
    19    10    27    1
    20    10    49    1
    21    11    26    2
    22    12    13    1
    23    12    14    1
    24    12    16    1
    25    12    29    1
    26    13    15    1
    27    13    17    1
    28    14    30    1
    29    15    18    1
    30    15    31    1
    31    15    32    1
    32    16    18    2
    33    16    24    1
    34    17    25    2
    35    17    26    1
    36    18    33    1
    37    19    20    1
    38    19    34    1
    39    20    21    1
    40    20    35    1
    41    21    22    1
    42    21    36    1
    43    22    23    1
    44    22    37    1
    45    23    27    1
    46    23    38    1
    47    24    39    1
    48    24    40    1
    49    25    41    1
    50    27    43    1
    51    27    44    1
    52    28    50    1
    53    28    51    1
    54    28    52    1
