@<TRIPOS>MOLECULE
IMPHY014196
 25 27 0 0 0
SMALL
GASTEIGER

@<TRIPOS>ATOM
      1 O           4.6660    1.6346    0.0000 O.2     1  UNL1       -0.2864
      2 O           6.4144    1.6692    0.0000 O.3     1  UNL1       -0.5060
      3 N           4.6660   -1.3654    0.0000 N.ar    1  UNL1       -0.3539
      4 C           5.5321    0.1346    0.0000 C.ar    1  UNL1        0.0869
      5 C           5.5321   -0.8654    0.0000 C.ar    1  UNL1        0.0541
      6 C           3.8000    0.1346    0.0000 C.ar    1  UNL1        0.0457
      7 C           3.8000   -0.8654    0.0000 C.ar    1  UNL1        0.0506
      8 C           4.6660    0.6346    0.0000 C.ar    1  UNL1        0.2006
      9 C           6.4260    0.6693    0.0000 C.ar    1  UNL1        0.1296
     10 C           6.4260   -1.4000    0.0000 C.ar    1  UNL1       -0.0374
     11 C           2.9061    0.6693    0.0000 C.ar    1  UNL1       -0.0489
     12 C           2.9061   -1.4000    0.0000 C.ar    1  UNL1       -0.0377
     13 C           7.3321    0.1554    0.0000 C.ar    1  UNL1       -0.0193
     14 C           7.3321   -0.8862    0.0000 C.ar    1  UNL1       -0.0563
     15 C           2.0000    0.1554    0.0000 C.ar    1  UNL1       -0.0610
     16 C           2.0000   -0.8862    0.0000 C.ar    1  UNL1       -0.0598
     17 H           4.6660   -1.9854    0.0000 H       1  UNL1        0.1659
     18 H           6.4188   -2.0200    0.0000 H       1  UNL1        0.0638
     19 H           2.9132    1.2892    0.0000 H       1  UNL1        0.0625
     20 H           2.9132   -2.0200    0.0000 H       1  UNL1        0.0638
     21 H           7.8678    0.4675    0.0000 H       1  UNL1        0.0654
     22 H           7.8678   -1.1983    0.0000 H       1  UNL1        0.0619
     23 H           1.4643    0.4675    0.0000 H       1  UNL1        0.0618
     24 H           1.4643   -1.1983    0.0000 H       1  UNL1        0.0618
     25 H           6.9478    1.9854    0.0000 H       1  UNL1        0.2922
@<TRIPOS>BOND
     1     1     8    2
     2     2     9    1
     3     2    25    1
     4     3     5   ar
     5     3     7   ar
     6     3    17    1
     7     4     5   ar
     8     4     8   ar
     9     4     9   ar
    10     5    10   ar
    11     6     7   ar
    12     6     8   ar
    13     6    11   ar
    14     7    12   ar
    15     9    13   ar
    16    10    14   ar
    17    10    18    1
    18    11    15   ar
    19    11    19    1
    20    12    16   ar
    21    12    20    1
    22    13    14   ar
    23    13    21    1
    24    14    22    1
    25    15    16   ar
    26    15    23    1
    27    16    24    1
