@<TRIPOS>MOLECULE
IMPHY002155
 70 72 0 0 0
SMALL
GASTEIGER

@<TRIPOS>ATOM
      1 O           9.5323   -3.7151    0.0000 O.2     1  UNL1       -0.4542
      2 O          13.0625   -1.6909    0.0000 O.3     1  UNL1       -0.4912
      3 O           7.7839   -0.6805    0.0000 O.3     1  UNL1       -0.5055
      4 O           9.5323   -0.7151    0.0000 O.2     1  UNL1       -0.2863
      5 O          13.0625   -3.7392    0.0000 O.3     1  UNL1       -0.5032
      6 O           6.0022   -3.7392    0.0000 O.3     1  UNL1       -0.5062
      7 O           2.5381   -1.6776    0.0000 O.3     1  UNL1       -0.3907
      8 C          10.3984   -2.2151    0.0000 C.ar    1  UNL1        0.0719
      9 C          11.2923   -1.6804    0.0000 C.ar    1  UNL1        0.0160
     10 C           8.6663   -2.2151    0.0000 C.ar    1  UNL1        0.1064
     11 C          10.3984   -3.2151    0.0000 C.ar    1  UNL1        0.1432
     12 C          11.2807   -0.6805    0.0000 C.3     1  UNL1       -0.0049
     13 C           9.5323   -1.7151    0.0000 C.ar    1  UNL1        0.2041
     14 C           8.6663   -3.2151    0.0000 C.ar    1  UNL1        0.1463
     15 C          12.1984   -2.1943    0.0000 C.ar    1  UNL1        0.1656
     16 C           7.7724   -1.6804    0.0000 C.ar    1  UNL1        0.1381
     17 C           6.8663   -2.1943    0.0000 C.ar    1  UNL1        0.0400
     18 C          11.2923   -3.7498    0.0000 C.ar    1  UNL1        0.0265
     19 C          12.1409   -0.1705    0.0000 C.2     1  UNL1       -0.0806
     20 C          12.1984   -3.2359    0.0000 C.ar    1  UNL1        0.1623
     21 C           7.7724   -3.7498    0.0000 C.ar    1  UNL1        0.0234
     22 C          12.1294    0.8294    0.0000 C.2     1  UNL1       -0.0759
     23 C           6.8663   -3.2359    0.0000 C.ar    1  UNL1        0.1273
     24 C           6.0022   -1.6909    0.0000 C.3     1  UNL1       -0.0022
     25 C          12.9895    1.3394    0.0000 C.3     1  UNL1       -0.0286
     26 C          12.9780    2.3393    0.0000 C.3     1  UNL1       -0.0308
     27 C          11.2576    1.3194    0.0000 C.3     1  UNL1       -0.0438
     28 C           5.1343   -2.1876    0.0000 C.2     1  UNL1       -0.0783
     29 C          13.8382    2.8493    0.0000 C.2     1  UNL1       -0.0850
     30 C           4.2702   -1.6843    0.0000 C.2     1  UNL1       -0.0512
     31 C          13.9304   -2.1876    0.0000 C.3     1  UNL1        0.0790
     32 C          13.8266    3.8492    0.0000 C.2     1  UNL1       -0.0796
     33 C           3.4022   -2.1809    0.0000 C.3     1  UNL1        0.0651
     34 C           4.2740   -0.6843    0.0000 C.3     1  UNL1       -0.0416
     35 C          14.6868    4.3592    0.0000 C.3     1  UNL1       -0.0440
     36 C          12.9549    4.3392    0.0000 C.3     1  UNL1       -0.0440
     37 H          11.0620   -0.1004    0.0000 H       1  UNL1        0.0357
     38 H          10.6714   -0.7952    0.0000 H       1  UNL1        0.0357
     39 H          11.2851   -4.3697    0.0000 H       1  UNL1        0.0692
     40 H          12.6814   -0.4743    0.0000 H       1  UNL1        0.0575
     41 H           7.7795   -4.3697    0.0000 H       1  UNL1        0.0691
     42 H           6.4026   -1.2175    0.0000 H       1  UNL1        0.0358
     43 H           5.6055   -1.2145    0.0000 H       1  UNL1        0.0358
     44 H          13.2083    0.7593    0.0000 H       1  UNL1        0.0313
     45 H          13.5988    1.4541    0.0000 H       1  UNL1        0.0313
     46 H          12.7592    2.9194    0.0000 H       1  UNL1        0.0310
     47 H          12.3687    2.2246    0.0000 H       1  UNL1        0.0310
     48 H          11.5614    1.8599    0.0000 H       1  UNL1        0.0274
     49 H          10.7171    1.6232    0.0000 H       1  UNL1        0.0274
     50 H          10.9538    0.7789    0.0000 H       1  UNL1        0.0274
     51 H           5.1319   -2.8076    0.0000 H       1  UNL1        0.0576
     52 H          14.3786    2.5456    0.0000 H       1  UNL1        0.0572
     53 H           7.2506   -0.3643    0.0000 H       1  UNL1        0.2922
     54 H          13.0601   -4.3592    0.0000 H       1  UNL1        0.2923
     55 H           6.0046   -4.3592    0.0000 H       1  UNL1        0.2921
     56 H          13.6225   -2.7257    0.0000 H       1  UNL1        0.0660
     57 H          14.4685   -2.4955    0.0000 H       1  UNL1        0.0660
     58 H          14.2383   -1.6495    0.0000 H       1  UNL1        0.0660
     59 H           3.0019   -2.6543    0.0000 H       1  UNL1        0.0604
     60 H           3.7989   -2.6574    0.0000 H       1  UNL1        0.0604
     61 H           4.8940   -0.6867    0.0000 H       1  UNL1        0.0275
     62 H           4.2764   -0.0643    0.0000 H       1  UNL1        0.0275
     63 H           3.6540   -0.6819    0.0000 H       1  UNL1        0.0275
     64 H          13.2586    4.8797    0.0000 H       1  UNL1        0.0274
     65 H          12.4144    4.6430    0.0000 H       1  UNL1        0.0274
     66 H          12.6511    3.7987    0.0000 H       1  UNL1        0.0274
     67 H          15.0030    3.8259    0.0000 H       1  UNL1        0.0274
     68 H          15.2201    4.6754    0.0000 H       1  UNL1        0.0274
     69 H          14.3706    4.8926    0.0000 H       1  UNL1        0.0274
     70 H           2.0000   -1.9855    0.0000 H       1  UNL1        0.2098
@<TRIPOS>BOND
     1     1    11   ar
     2     1    14   ar
     3     2    15    1
     4     2    31    1
     5     3    16    1
     6     3    53    1
     7     4    13    2
     8     5    20    1
     9     5    54    1
    10     6    23    1
    11     6    55    1
    12     7    33    1
    13     7    70    1
    14     8     9   ar
    15     8    11   ar
    16     8    13   ar
    17     9    12    1
    18     9    15   ar
    19    10    13   ar
    20    10    14   ar
    21    10    16   ar
    22    11    18   ar
    23    12    19    1
    24    12    37    1
    25    12    38    1
    26    14    21   ar
    27    15    20   ar
    28    16    17   ar
    29    17    23   ar
    30    17    24    1
    31    18    20   ar
    32    18    39    1
    33    19    22    2
    34    19    40    1
    35    21    23   ar
    36    21    41    1
    37    22    25    1
    38    22    27    1
    39    24    28    1
    40    24    42    1
    41    24    43    1
    42    25    26    1
    43    25    44    1
    44    25    45    1
    45    26    29    1
    46    26    46    1
    47    26    47    1
    48    27    48    1
    49    27    49    1
    50    27    50    1
    51    28    30    2
    52    28    51    1
    53    29    32    2
    54    29    52    1
    55    30    33    1
    56    30    34    1
    57    31    56    1
    58    31    57    1
    59    31    58    1
    60    32    35    1
    61    32    36    1
    62    33    59    1
    63    33    60    1
    64    34    61    1
    65    34    62    1
    66    34    63    1
    67    35    67    1
    68    35    68    1
    69    35    69    1
    70    36    64    1
    71    36    65    1
    72    36    66    1
