@<TRIPOS>MOLECULE
IMPHY002131
 53 55 0 0 0
SMALL
GASTEIGER

@<TRIPOS>ATOM
      1 O           6.0682   -1.8518    0.0000 O.2     1  UNL1       -0.4505
      2 O           7.8167    1.1827    0.0000 O.3     1  UNL1       -0.5055
      3 O           9.5984   -1.8760    0.0000 O.3     1  UNL1       -0.5062
      4 O           6.0682    1.1482    0.0000 O.2     1  UNL1       -0.2863
      5 O           4.3198   -2.8864    0.0000 O.3     1  UNL1       -0.5009
      6 O           2.5381   -1.8760    0.0000 O.3     1  UNL1       -0.5032
      7 C           9.5984    0.1723    0.0000 C.3     1  UNL1        0.0148
      8 C           8.7343   -0.3310    0.0000 C.ar    1  UNL1        0.0456
      9 C           6.9343   -0.3519    0.0000 C.ar    1  UNL1        0.1064
     10 C           7.8282    0.1828    0.0000 C.ar    1  UNL1        0.1387
     11 C          10.1017   -0.6918    0.0000 C.3     1  UNL1       -0.0521
     12 C           9.0950    1.0364    0.0000 C.3     1  UNL1       -0.0521
     13 C           6.9343   -1.3518    0.0000 C.ar    1  UNL1        0.1465
     14 C           8.7343   -1.3727    0.0000 C.ar    1  UNL1        0.1278
     15 C           5.2022   -0.3519    0.0000 C.ar    1  UNL1        0.0720
     16 C           6.0682    0.1481    0.0000 C.ar    1  UNL1        0.2041
     17 C          10.4625    0.6756    0.0000 C.2     1  UNL1       -0.0809
     18 C           5.2022   -1.3518    0.0000 C.ar    1  UNL1        0.1844
     19 C           7.8282   -1.8865    0.0000 C.ar    1  UNL1        0.0234
     20 C           4.3083    0.1828    0.0000 C.ar    1  UNL1       -0.0256
     21 C           4.3198    1.1827    0.0000 C.3     1  UNL1       -0.0083
     22 C           4.3083   -1.8865    0.0000 C.ar    1  UNL1        0.2022
     23 C           3.4022   -0.3310    0.0000 C.ar    1  UNL1       -0.0121
     24 C           3.4022   -1.3727    0.0000 C.ar    1  UNL1        0.1623
     25 C          11.3304    0.1790    0.0000 C.2     1  UNL1       -0.1018
     26 C           3.4597    1.6927    0.0000 C.2     1  UNL1       -0.0810
     27 C           3.4712    2.6927    0.0000 C.2     1  UNL1       -0.0793
     28 C           2.6110    3.2026    0.0000 C.3     1  UNL1       -0.0440
     29 C           4.3430    3.1826    0.0000 C.3     1  UNL1       -0.0440
     30 H           9.5660   -1.0039    0.0000 H       1  UNL1        0.0241
     31 H          10.4138   -1.2275    0.0000 H       1  UNL1        0.0241
     32 H          10.6375   -0.3797    0.0000 H       1  UNL1        0.0241
     33 H           9.6308    1.3485    0.0000 H       1  UNL1        0.0241
     34 H           8.7830    1.5721    0.0000 H       1  UNL1        0.0241
     35 H           8.5593    0.7243    0.0000 H       1  UNL1        0.0241
     36 H          10.4601    1.2956    0.0000 H       1  UNL1        0.0575
     37 H           7.8210   -2.5065    0.0000 H       1  UNL1        0.0691
     38 H           4.9291    1.0680    0.0000 H       1  UNL1        0.0356
     39 H           4.5386    1.7629    0.0000 H       1  UNL1        0.0356
     40 H           2.8665   -0.0190    0.0000 H       1  UNL1        0.0658
     41 H           7.2762    1.4865    0.0000 H       1  UNL1        0.2922
     42 H          11.3328   -0.4410    0.0000 H       1  UNL1        0.0532
     43 H          11.8662    0.4910    0.0000 H       1  UNL1        0.0532
     44 H           2.9192    1.3889    0.0000 H       1  UNL1        0.0575
     45 H           9.5960   -2.4960    0.0000 H       1  UNL1        0.2921
     46 H           3.7865   -3.2026    0.0000 H       1  UNL1        0.2924
     47 H           2.0000   -1.5681    0.0000 H       1  UNL1        0.2923
     48 H           2.9272    3.7360    0.0000 H       1  UNL1        0.0274
     49 H           2.0777    3.5188    0.0000 H       1  UNL1        0.0274
     50 H           4.6468    2.6421    0.0000 H       1  UNL1        0.0274
     51 H           4.8835    3.4864    0.0000 H       1  UNL1        0.0274
     52 H           4.0392    3.7231    0.0000 H       1  UNL1        0.0274
     53 H           2.2948    2.6693    0.0000 H       1  UNL1        0.0274
@<TRIPOS>BOND
     1     1    13   ar
     2     1    18   ar
     3     2    10    1
     4     2    41    1
     5     3    14    1
     6     3    45    1
     7     4    16    2
     8     5    22    1
     9     5    46    1
    10     6    24    1
    11     6    47    1
    12     7     8    1
    13     7    11    1
    14     7    12    1
    15     7    17    1
    16     8    10   ar
    17     8    14   ar
    18     9    10   ar
    19     9    13   ar
    20     9    16   ar
    21    11    30    1
    22    11    31    1
    23    11    32    1
    24    12    33    1
    25    12    34    1
    26    12    35    1
    27    13    19   ar
    28    14    19   ar
    29    15    16   ar
    30    15    18   ar
    31    15    20   ar
    32    17    25    2
    33    17    36    1
    34    18    22   ar
    35    19    37    1
    36    20    21    1
    37    20    23   ar
    38    21    26    1
    39    21    38    1
    40    21    39    1
    41    22    24   ar
    42    23    24   ar
    43    23    40    1
    44    25    42    1
    45    25    43    1
    46    26    27    2
    47    26    44    1
    48    27    28    1
    49    27    29    1
    50    28    48    1
    51    28    49    1
    52    28    53    1
    53    29    50    1
    54    29    51    1
    55    29    52    1
