@<TRIPOS>MOLECULE
IMPHY009230
 80 86 0 0 0
SMALL
GASTEIGER

@<TRIPOS>ATOM
      1 O           7.2925   -0.0721    0.0000 O.3     1  UNL1       -0.4579
      2 O           7.8996    1.8859    0.0000 O.3     1  UNL1       -0.3877
      3 O           7.7532   -1.4739    0.0000 O.3     1  UNL1       -0.3837
      4 O           6.0010   -3.5364    0.0000 O.3     1  UNL1       -0.3453
      5 O           5.5256   -0.3241    0.0000 O.2     1  UNL1       -0.2501
      6 O           4.2009    5.1914    0.0000 O.3     1  UNL1       -0.4571
      7 O           4.2690   -3.5364    0.0000 O.3     1  UNL1       -0.3431
      8 O           4.8616    6.8464    0.0000 O.2     1  UNL1       -0.2456
      9 O           6.0010   -5.5364    0.0000 O.3     1  UNL1       -0.3841
     10 O           4.2690   -6.5364    0.0000 O.3     1  UNL1       -0.3864
     11 O           2.5369   -5.5364    0.0000 O.3     1  UNL1       -0.3866
     12 C           6.8968    1.0295    0.0000 C.3     1  UNL1       -0.0042
     13 C           6.0288    0.5328    0.0000 C.3     1  UNL1       -0.0169
     14 C           6.0250   -0.4672    0.0000 C.3     1  UNL1        0.1030
     15 C           6.9168    2.0709    0.0000 C.3     1  UNL1        0.0752
     16 C           6.0208    2.6021    0.0000 C.3     1  UNL1        0.0036
     17 C           6.8891   -0.9705    0.0000 C.3     1  UNL1        0.1210
     18 C           7.7570   -0.4739    0.0000 C.3     1  UNL1        0.1331
     19 C           7.7609    0.5261    0.0000 C.3     1  UNL1       -0.0071
     20 C           5.1208    1.0432    0.0000 C.3     1  UNL1       -0.0482
     21 C           5.1168    2.0848    0.0000 C.3     1  UNL1       -0.0442
     22 C           6.2504    3.6118    0.0000 C.3     1  UNL1       -0.0081
     23 C           7.6925    2.7568    0.0000 C.3     1  UNL1       -0.0226
     24 C           5.1130   -0.9705    0.0000 C.3     1  UNL1       -0.0318
     25 C           7.2815    3.7072    0.0000 C.3     1  UNL1       -0.0432
     26 C           6.9011   -2.0121    0.0000 C.3     1  UNL1        0.0070
     27 C           6.4925   -0.0690    0.0000 C.2     1  UNL1        0.3169
     28 C           5.1607    3.1121    0.0000 C.3     1  UNL1       -0.0564
     29 C           5.1010   -2.0121    0.0000 C.3     1  UNL1       -0.0253
     30 C           6.0010   -2.5364    0.0000 C.3     1  UNL1        0.0646
     31 C           5.5913    4.3638    0.0000 C.2     1  UNL1       -0.0222
     32 C           4.5954    4.2725    0.0000 C.3     1  UNL1        0.1147
     33 C           5.8122    5.3391    0.0000 C.2     1  UNL1        0.0252
     34 C           5.1350   -4.0364    0.0000 C.3     1  UNL1        0.1881
     35 C           4.9528    5.8505    0.0000 C.2     1  UNL1        0.3323
     36 C           5.1350   -5.0364    0.0000 C.3     1  UNL1        0.1341
     37 C           4.2690   -5.5364    0.0000 C.3     1  UNL1        0.1140
     38 C           3.4030   -4.0364    0.0000 C.3     1  UNL1        0.0873
     39 C           3.4030   -5.0364    0.0000 C.3     1  UNL1        0.1095
     40 C           2.5369   -3.5364    0.0000 C.3     1  UNL1       -0.0361
     41 H           7.6345    1.4516    0.0000 H       1  UNL1        0.0333
     42 H           5.1912    0.3885    0.0000 H       1  UNL1        0.0316
     43 H           8.6070   -0.4771    0.0000 H       1  UNL1        0.0763
     44 H           8.3710    0.4161    0.0000 H       1  UNL1        0.0305
     45 H           7.9752    1.1079    0.0000 H       1  UNL1        0.0305
     46 H           4.5095    1.1469    0.0000 H       1  UNL1        0.0269
     47 H           4.9140    0.4587    0.0000 H       1  UNL1        0.0269
     48 H           4.9055    2.6677    0.0000 H       1  UNL1        0.0272
     49 H           4.5063    1.9763    0.0000 H       1  UNL1        0.0272
     50 H           6.4801    4.1877    0.0000 H       1  UNL1        0.0353
     51 H           8.0521    2.2518    0.0000 H       1  UNL1        0.0293
     52 H           8.2326    3.0614    0.0000 H       1  UNL1        0.0293
     53 H           4.9107   -0.3844    0.0000 H       1  UNL1        0.0278
     54 H           4.5010   -1.0695    0.0000 H       1  UNL1        0.0278
     55 H           7.8733    3.8922    0.0000 H       1  UNL1        0.0272
     56 H           7.1598    4.3152    0.0000 H       1  UNL1        0.0272
     57 H           7.1169   -2.5933    0.0000 H       1  UNL1        0.0319
     58 H           7.5107   -1.8989    0.0000 H       1  UNL1        0.0319
     59 H           5.4768    3.6454    0.0000 H       1  UNL1        0.0236
     60 H           4.6273    3.4283    0.0000 H       1  UNL1        0.0236
     61 H           4.8445    2.5788    0.0000 H       1  UNL1        0.0236
     62 H           4.4914   -1.8989    0.0000 H       1  UNL1        0.0290
     63 H           4.8852   -2.5933    0.0000 H       1  UNL1        0.0290
     64 H           6.5386   -2.8453    0.0000 H       1  UNL1        0.0598
     65 H           8.3036    2.3562    0.0000 H       1  UNL1        0.2102
     66 H           7.7508   -2.0939    0.0000 H       1  UNL1        0.2104
     67 H           4.0033    4.0887    0.0000 H       1  UNL1        0.0746
     68 H           4.7163    3.6644    0.0000 H       1  UNL1        0.0746
     69 H           6.3818    5.5837    0.0000 H       1  UNL1        0.0689
     70 H           5.1350   -3.4164    0.0000 H       1  UNL1        0.0937
     71 H           5.1350   -5.6564    0.0000 H       1  UNL1        0.0671
     72 H           3.7320   -5.8464    0.0000 H       1  UNL1        0.0648
     73 H           3.4030   -3.4164    0.0000 H       1  UNL1        0.0621
     74 H           2.8660   -4.7264    0.0000 H       1  UNL1        0.0646
     75 H           6.0010   -6.1564    0.0000 H       1  UNL1        0.2101
     76 H           2.8469   -2.9994    0.0000 H       1  UNL1        0.0255
     77 H           2.0000   -3.2264    0.0000 H       1  UNL1        0.0255
     78 H           2.2269   -4.0733    0.0000 H       1  UNL1        0.0255
     79 H           3.7320   -6.8464    0.0000 H       1  UNL1        0.2100
     80 H           2.0000   -5.2264    0.0000 H       1  UNL1        0.2100
@<TRIPOS>BOND
     1     1    18    1
     2     1    27    1
     3    15     2    1
     4     2    65    1
     5    17     3    1
     6     3    66    1
     7    30     4    1
     8     4    34    1
     9     5    27    2
    10     6    32    1
    11     6    35    1
    12     7    34    1
    13     7    38    1
    14     8    35    2
    15    36     9    1
    16     9    75    1
    17    37    10    1
    18    10    79    1
    19    39    11    1
    20    11    80    1
    21    12    13    1
    22    12    15    1
    23    12    19    1
    24    12    41    1
    25    13    14    1
    26    13    20    1
    27    13    42    1
    28    14    17    1
    29    14    24    1
    30    14    27    1
    31    15    16    1
    32    15    23    1
    33    16    21    1
    34    16    22    1
    35    16    28    1
    36    17    18    1
    37    17    26    1
    38    18    19    1
    39    18    43    1
    40    19    44    1
    41    19    45    1
    42    20    21    1
    43    20    46    1
    44    20    47    1
    45    21    48    1
    46    21    49    1
    47    22    25    1
    48    22    31    1
    49    22    50    1
    50    23    25    1
    51    23    51    1
    52    23    52    1
    53    24    29    1
    54    24    53    1
    55    24    54    1
    56    25    55    1
    57    25    56    1
    58    26    30    1
    59    26    57    1
    60    26    58    1
    61    28    59    1
    62    28    60    1
    63    28    61    1
    64    29    30    1
    65    29    62    1
    66    29    63    1
    67    30    64    1
    68    31    32    1
    69    31    33    2
    70    32    67    1
    71    32    68    1
    72    33    35    1
    73    33    69    1
    74    34    36    1
    75    34    70    1
    76    36    37    1
    77    36    71    1
    78    37    39    1
    79    37    72    1
    80    38    39    1
    81    38    40    1
    82    38    73    1
    83    39    74    1
    84    40    76    1
    85    40    77    1
    86    40    78    1
