@<TRIPOS>MOLECULE
IMPHY004632
 28 30 0 0 0
SMALL
GASTEIGER

@<TRIPOS>ATOM
      1 O           2.6720   -0.0608    0.0000 O.3     1  UNL1       -0.4950
      2 N           6.1767    0.8518    0.0000 N.ar    1  UNL1       -0.3526
      3 N           8.7040   -0.2724    0.0000 N.ar    1  UNL1       -0.2581
      4 C           5.6767   -0.6871    0.0000 C.ar    1  UNL1        0.0077
      5 C           6.6767   -0.6871    0.0000 C.ar    1  UNL1        0.0106
      6 C           6.9857    0.2640    0.0000 C.ar    1  UNL1        0.0688
      7 C           5.3677    0.2640    0.0000 C.ar    1  UNL1        0.0510
      8 C           8.0011    0.4963    0.0000 C.ar    1  UNL1        0.0620
      9 C           4.9917   -1.4718    0.0000 C.ar    1  UNL1       -0.0485
     10 C           4.3523    0.4963    0.0000 C.ar    1  UNL1        0.0040
     11 C           7.3617   -1.4718    0.0000 C.ar    1  UNL1       -0.0338
     12 C           3.6493   -0.2724    0.0000 C.ar    1  UNL1        0.1221
     13 C           3.9712   -1.2631    0.0000 C.ar    1  UNL1       -0.0192
     14 C           8.3822   -1.2631    0.0000 C.ar    1  UNL1        0.0286
     15 C           8.2991    1.4508    0.0000 C.3     1  UNL1       -0.0203
     16 C           2.0000   -0.8013    0.0000 C.3     1  UNL1        0.0788
     17 H           6.1767    1.4718    0.0000 H       1  UNL1        0.1660
     18 H           5.1901   -2.0592    0.0000 H       1  UNL1        0.0625
     19 H           4.1675    1.0881    0.0000 H       1  UNL1        0.0675
     20 H           7.1633   -2.0592    0.0000 H       1  UNL1        0.0639
     21 H           3.5581   -1.7254    0.0000 H       1  UNL1        0.0654
     22 H           8.7952   -1.7254    0.0000 H       1  UNL1        0.0830
     23 H           8.8909    1.2661    0.0000 H       1  UNL1        0.0293
     24 H           8.4839    2.0426    0.0000 H       1  UNL1        0.0293
     25 H           7.7073    1.6356    0.0000 H       1  UNL1        0.0293
     26 H           1.5408   -0.3847    0.0000 H       1  UNL1        0.0660
     27 H           1.5834   -1.2605    0.0000 H       1  UNL1        0.0660
     28 H           2.4592   -1.2180    0.0000 H       1  UNL1        0.0660
@<TRIPOS>BOND
     1     1    12    1
     2     1    16    1
     3     2     6   ar
     4     2     7   ar
     5     2    17    1
     6     3     8   ar
     7     3    14   ar
     8     4     5   ar
     9     4     7   ar
    10     4     9   ar
    11     5     6   ar
    12     5    11   ar
    13     6     8   ar
    14     7    10   ar
    15     8    15    1
    16     9    13   ar
    17     9    18    1
    18    10    12   ar
    19    10    19    1
    20    11    14   ar
    21    11    20    1
    22    12    13   ar
    23    13    21    1
    24    14    22    1
    25    15    23    1
    26    15    24    1
    27    15    25    1
    28    16    26    1
    29    16    27    1
    30    16    28    1
