@<TRIPOS>MOLECULE
IMPHY000077
 26 25 0 0 0
SMALL
GASTEIGER

@<TRIPOS>ATOM
      1 S           6.3301   -0.2500    0.0000 S.3     1  UNL1       -0.0887
      2 S           7.1962    0.2500    0.0000 S.3     1  UNL1       -0.0887
      3 S           2.8660   -0.2500    0.0000 S.3     1  UNL1       -0.1367
      4 S          10.6603    0.2500    0.0000 S.3     1  UNL1       -0.1367
      5 C           5.4641    0.2500    0.0000 C.3     1  UNL1        0.0228
      6 C           8.0622   -0.2500    0.0000 C.3     1  UNL1        0.0228
      7 C           4.5981   -0.2500    0.0000 C.2     1  UNL1       -0.0672
      8 C           8.9282    0.2500    0.0000 C.2     1  UNL1       -0.0672
      9 C           3.7320    0.2500    0.0000 C.2     1  UNL1       -0.0320
     10 C           9.7942   -0.2500    0.0000 C.2     1  UNL1       -0.0320
     11 C           2.0000    0.2500    0.0000 C.3     1  UNL1       -0.0140
     12 C          11.5263   -0.2500    0.0000 C.3     1  UNL1       -0.0140
     13 H           7.6636   -0.7249    0.0000 H       1  UNL1        0.0428
     14 H           8.4607   -0.7249    0.0000 H       1  UNL1        0.0428
     15 H           5.8626    0.7249    0.0000 H       1  UNL1        0.0428
     16 H           5.0656    0.7249    0.0000 H       1  UNL1        0.0428
     17 H           4.5981   -0.8700    0.0000 H       1  UNL1        0.0585
     18 H           8.9282    0.8700    0.0000 H       1  UNL1        0.0585
     19 H           3.7320    0.8700    0.0000 H       1  UNL1        0.0687
     20 H           9.7942   -0.8700    0.0000 H       1  UNL1        0.0687
     21 H           2.3100    0.7869    0.0000 H       1  UNL1        0.0344
     22 H           1.4631    0.5600    0.0000 H       1  UNL1        0.0344
     23 H           1.6900   -0.2869    0.0000 H       1  UNL1        0.0344
     24 H          11.2163   -0.7869    0.0000 H       1  UNL1        0.0344
     25 H          12.0632   -0.5600    0.0000 H       1  UNL1        0.0344
     26 H          11.8363    0.2869    0.0000 H       1  UNL1        0.0344
@<TRIPOS>BOND
     1     1     2    1
     2     1     5    1
     3     2     6    1
     4     3     9    1
     5     3    11    1
     6     4    10    1
     7     4    12    1
     8     5     7    1
     9     5    15    1
    10     5    16    1
    11     6     8    1
    12     6    13    1
    13     6    14    1
    14     7     9    2
    15     7    17    1
    16     8    10    2
    17     8    18    1
    18     9    19    1
    19    10    20    1
    20    11    21    1
    21    11    22    1
    22    11    23    1
    23    12    24    1
    24    12    25    1
    25    12    26    1
