@<TRIPOS>MOLECULE
IMPHY006696
 27 27 0 0 0
SMALL
GASTEIGER

@<TRIPOS>ATOM
      1 O           4.5981    2.0000    0.0000 O.3     1  UNL1       -0.4914
      2 O           2.8660    1.0000    0.0000 O.3     1  UNL1       -0.4915
      3 C           5.4641   -0.5000    0.0000 C.ar    1  UNL1       -0.0400
      4 C           6.3301   -1.0000    0.0000 C.3     1  UNL1       -0.0096
      5 C           5.4641    0.5000    0.0000 C.ar    1  UNL1       -0.0128
      6 C           4.5981    1.0000    0.0000 C.ar    1  UNL1        0.1617
      7 C           4.5981   -1.0000    0.0000 C.ar    1  UNL1       -0.0546
      8 C           3.7320    0.5000    0.0000 C.ar    1  UNL1        0.1615
      9 C           3.7320   -0.5000    0.0000 C.ar    1  UNL1       -0.0160
     10 C           6.3301   -2.0000    0.0000 C.2     1  UNL1       -0.0868
     11 C           5.4641    2.5000    0.0000 C.3     1  UNL1        0.0790
     12 C           2.0000    0.5000    0.0000 C.3     1  UNL1        0.0790
     13 C           7.1962   -2.5000    0.0000 C.2     1  UNL1       -0.1023
     14 H           6.9407   -1.1077    0.0000 H       1  UNL1        0.0355
     15 H           6.5422   -0.4174    0.0000 H       1  UNL1        0.0355
     16 H           6.0010    0.8100    0.0000 H       1  UNL1        0.0658
     17 H           4.5981   -1.6200    0.0000 H       1  UNL1        0.0622
     18 H           3.1951   -0.8100    0.0000 H       1  UNL1        0.0655
     19 H           5.7932   -2.3100    0.0000 H       1  UNL1        0.0570
     20 H           5.7741    1.9631    0.0000 H       1  UNL1        0.0660
     21 H           6.0010    2.8100    0.0000 H       1  UNL1        0.0660
     22 H           5.1541    3.0369    0.0000 H       1  UNL1        0.0660
     23 H           1.6900    1.0369    0.0000 H       1  UNL1        0.0660
     24 H           1.4631    0.1900    0.0000 H       1  UNL1        0.0660
     25 H           2.3100   -0.0369    0.0000 H       1  UNL1        0.0660
     26 H           7.1962   -3.1200    0.0000 H       1  UNL1        0.0532
     27 H           7.7331   -2.1900    0.0000 H       1  UNL1        0.0532
@<TRIPOS>BOND
     1     1     6    1
     2     1    11    1
     3     2     8    1
     4     2    12    1
     5     3     4    1
     6     3     5   ar
     7     3     7   ar
     8     4    10    1
     9     4    14    1
    10     4    15    1
    11     5     6   ar
    12     5    16    1
    13     6     8   ar
    14     7     9   ar
    15     7    17    1
    16     8     9   ar
    17     9    18    1
    18    10    13    2
    19    10    19    1
    20    11    20    1
    21    11    21    1
    22    11    22    1
    23    12    23    1
    24    12    24    1
    25    12    25    1
    26    13    26    1
    27    13    27    1
