@<TRIPOS>MOLECULE
IMPHY009917
 51 52 0 0 0
SMALL
GASTEIGER

@<TRIPOS>ATOM
      1 O           6.0010   -0.5000    0.0000 O.3     1  UNL1       -0.3403
      2 O           4.2690   -0.5000    0.0000 O.3     1  UNL1       -0.3431
      3 O           5.1350    2.0000    0.0000 O.3     1  UNL1       -0.3457
      4 O           7.7331    0.5000    0.0000 O.3     1  UNL1       -0.3770
      5 O           4.2690   -3.5000    0.0000 O.3     1  UNL1       -0.3744
      6 O           6.0010   -2.5000    0.0000 O.3     1  UNL1       -0.3841
      7 O           2.5369   -2.5000    0.0000 O.3     1  UNL1       -0.3866
      8 O           6.0010    3.5000    0.0000 O.3     1  UNL1       -0.3544
      9 C           6.0010    0.5000    0.0000 C.3     1  UNL1        0.1138
     10 C           5.1350   -1.0000    0.0000 C.3     1  UNL1        0.1883
     11 C           6.8671    1.0000    0.0000 C.3     1  UNL1        0.0915
     12 C           5.1350   -2.0000    0.0000 C.3     1  UNL1        0.1344
     13 C           4.2690   -2.5000    0.0000 C.3     1  UNL1        0.1170
     14 C           5.1350    1.0000    0.0000 C.3     1  UNL1        0.0875
     15 C           3.4030   -2.0000    0.0000 C.3     1  UNL1        0.1097
     16 C           3.4030   -1.0000    0.0000 C.3     1  UNL1        0.0873
     17 C           6.8671    2.0000    0.0000 C.3     1  UNL1        0.0272
     18 C           6.0010    2.5000    0.0000 C.3     1  UNL1        0.1616
     19 C           4.2690    0.5000    0.0000 C.3     1  UNL1       -0.0361
     20 C           2.5369   -0.5000    0.0000 C.3     1  UNL1       -0.0361
     21 C           8.5991    1.0000    0.0000 C.3     1  UNL1        0.0369
     22 C           3.4030   -4.0000    0.0000 C.3     1  UNL1        0.0370
     23 C           6.8671    4.0000    0.0000 C.3     1  UNL1        0.0394
     24 H           6.5380    0.1900    0.0000 H       1  UNL1        0.0649
     25 H           5.1350   -0.3800    0.0000 H       1  UNL1        0.0938
     26 H           7.4040    1.3100    0.0000 H       1  UNL1        0.0624
     27 H           5.1350   -2.6200    0.0000 H       1  UNL1        0.0671
     28 H           3.7320   -2.8100    0.0000 H       1  UNL1        0.0650
     29 H           4.5981    1.3100    0.0000 H       1  UNL1        0.0621
     30 H           2.8660   -1.6900    0.0000 H       1  UNL1        0.0646
     31 H           3.4030   -0.3800    0.0000 H       1  UNL1        0.0621
     32 H           7.4776    1.8923    0.0000 H       1  UNL1        0.0340
     33 H           7.0791    2.5826    0.0000 H       1  UNL1        0.0340
     34 H           6.5380    2.8100    0.0000 H       1  UNL1        0.0910
     35 H           3.9590    1.0369    0.0000 H       1  UNL1        0.0255
     36 H           3.7320    0.1900    0.0000 H       1  UNL1        0.0255
     37 H           4.5790   -0.0369    0.0000 H       1  UNL1        0.0255
     38 H           2.8469    0.0369    0.0000 H       1  UNL1        0.0255
     39 H           2.0000   -0.1900    0.0000 H       1  UNL1        0.0255
     40 H           2.2269   -1.0369    0.0000 H       1  UNL1        0.0255
     41 H           6.0010   -3.1200    0.0000 H       1  UNL1        0.2101
     42 H           2.0000   -2.1900    0.0000 H       1  UNL1        0.2100
     43 H           8.9091    0.4631    0.0000 H       1  UNL1        0.0524
     44 H           9.1360    1.3100    0.0000 H       1  UNL1        0.0524
     45 H           8.2891    1.5369    0.0000 H       1  UNL1        0.0524
     46 H           3.0930   -3.4631    0.0000 H       1  UNL1        0.0524
     47 H           2.8660   -4.3100    0.0000 H       1  UNL1        0.0524
     48 H           3.7130   -4.5369    0.0000 H       1  UNL1        0.0524
     49 H           7.1771    3.4631    0.0000 H       1  UNL1        0.0525
     50 H           7.4040    4.3100    0.0000 H       1  UNL1        0.0525
     51 H           6.5571    4.5369    0.0000 H       1  UNL1        0.0525
@<TRIPOS>BOND
     1     9     1    1
     2    10     1    1
     3     2    10    1
     4     2    16    1
     5     3    14    1
     6     3    18    1
     7    11     4    1
     8     4    21    1
     9    13     5    1
    10     5    22    1
    11    12     6    1
    12     6    41    1
    13    15     7    1
    14     7    42    1
    15     8    18    1
    16     8    23    1
    17     9    11    1
    18     9    14    1
    19     9    24    1
    20    10    12    1
    21    10    25    1
    22    11    17    1
    23    11    26    1
    24    12    13    1
    25    12    27    1
    26    13    15    1
    27    13    28    1
    28    14    19    1
    29    14    29    1
    30    15    16    1
    31    15    30    1
    32    16    20    1
    33    16    31    1
    34    17    18    1
    35    17    32    1
    36    17    33    1
    37    18    34    1
    38    19    35    1
    39    19    36    1
    40    19    37    1
    41    20    38    1
    42    20    39    1
    43    20    40    1
    44    21    43    1
    45    21    44    1
    46    21    45    1
    47    22    46    1
    48    22    47    1
    49    22    48    1
    50    23    49    1
    51    23    50    1
    52    23    51    1
