@<TRIPOS>MOLECULE
IMPHY006917
 70 70 0 0 0
SMALL
GASTEIGER

@<TRIPOS>ATOM
      1 O           8.9282    1.5000    0.0000 O.3     1  UNL1       -0.3917
      2 O           8.0622    3.0000    0.0000 O.3     1  UNL1       -0.3917
      3 O           4.5981    7.0000    0.0000 O.3     1  UNL1       -0.4914
      4 O           2.8660    6.0000    0.0000 O.3     1  UNL1       -0.4915
      5 C           8.0622    1.0000    0.0000 C.3     1  UNL1        0.0576
      6 C           8.0622    0.0000    0.0000 C.3     1  UNL1       -0.0268
      7 C           8.9282   -0.5000    0.0000 C.3     1  UNL1       -0.0507
      8 C           8.9282   -1.5000    0.0000 C.3     1  UNL1       -0.0530
      9 C           7.1962    1.5000    0.0000 C.3     1  UNL1       -0.0007
     10 C           9.7942   -2.0000    0.0000 C.3     1  UNL1       -0.0531
     11 C           7.1962    2.5000    0.0000 C.3     1  UNL1        0.0579
     12 C           9.7942   -3.0000    0.0000 C.3     1  UNL1       -0.0531
     13 C          10.6603   -3.5000    0.0000 C.3     1  UNL1       -0.0531
     14 C           6.3301    3.0000    0.0000 C.3     1  UNL1       -0.0228
     15 C          10.6603   -4.5000    0.0000 C.3     1  UNL1       -0.0531
     16 C          11.5263   -5.0000    0.0000 C.3     1  UNL1       -0.0531
     17 C           6.3301    4.0000    0.0000 C.3     1  UNL1       -0.0252
     18 C          11.5263   -6.0000    0.0000 C.3     1  UNL1       -0.0533
     19 C           5.4641    4.5000    0.0000 C.ar    1  UNL1       -0.0436
     20 C          12.3923   -6.5000    0.0000 C.3     1  UNL1       -0.0559
     21 C           5.4641    5.5000    0.0000 C.ar    1  UNL1       -0.0131
     22 C           4.5981    4.0000    0.0000 C.ar    1  UNL1       -0.0549
     23 C          12.3923   -7.5000    0.0000 C.3     1  UNL1       -0.0653
     24 C           4.5981    6.0000    0.0000 C.ar    1  UNL1        0.1617
     25 C           3.7320    4.5000    0.0000 C.ar    1  UNL1       -0.0160
     26 C           3.7320    5.5000    0.0000 C.ar    1  UNL1        0.1615
     27 C           5.4641    7.5000    0.0000 C.3     1  UNL1        0.0790
     28 C           2.0000    5.5000    0.0000 C.3     1  UNL1        0.0790
     29 H           8.0622    1.6200    0.0000 H       1  UNL1        0.0594
     30 H           7.4516    0.1077    0.0000 H       1  UNL1        0.0290
     31 H           7.8501   -0.5826    0.0000 H       1  UNL1        0.0290
     32 H           9.5388   -0.6077    0.0000 H       1  UNL1        0.0266
     33 H           9.1403    0.0826    0.0000 H       1  UNL1        0.0266
     34 H           8.3176   -1.3923    0.0000 H       1  UNL1        0.0265
     35 H           8.7162   -2.0826    0.0000 H       1  UNL1        0.0265
     36 H           6.5856    1.6077    0.0000 H       1  UNL1        0.0315
     37 H           6.9841    0.9174    0.0000 H       1  UNL1        0.0315
     38 H          10.4048   -2.1077    0.0000 H       1  UNL1        0.0265
     39 H          10.0063   -1.4174    0.0000 H       1  UNL1        0.0265
     40 H           7.7331    2.1900    0.0000 H       1  UNL1        0.0594
     41 H           9.1836   -2.8923    0.0000 H       1  UNL1        0.0265
     42 H           9.5822   -3.5826    0.0000 H       1  UNL1        0.0265
     43 H          11.2708   -3.6077    0.0000 H       1  UNL1        0.0265
     44 H          10.8723   -2.9174    0.0000 H       1  UNL1        0.0265
     45 H           5.7196    3.1077    0.0000 H       1  UNL1        0.0293
     46 H           6.1181    2.4174    0.0000 H       1  UNL1        0.0293
     47 H          10.0497   -4.3923    0.0000 H       1  UNL1        0.0265
     48 H          10.4482   -5.0826    0.0000 H       1  UNL1        0.0265
     49 H          12.1369   -5.1077    0.0000 H       1  UNL1        0.0265
     50 H          11.7383   -4.4174    0.0000 H       1  UNL1        0.0265
     51 H           6.9407    3.8923    0.0000 H       1  UNL1        0.0314
     52 H           6.5422    4.5826    0.0000 H       1  UNL1        0.0314
     53 H          10.9157   -5.8923    0.0000 H       1  UNL1        0.0265
     54 H          11.3142   -6.5826    0.0000 H       1  UNL1        0.0265
     55 H           9.4651    1.1900    0.0000 H       1  UNL1        0.2098
     56 H           8.5991    2.6900    0.0000 H       1  UNL1        0.2098
     57 H          13.0029   -6.6077    0.0000 H       1  UNL1        0.0263
     58 H          12.6044   -5.9174    0.0000 H       1  UNL1        0.0263
     59 H           6.0010    5.8100    0.0000 H       1  UNL1        0.0658
     60 H           4.5981    3.3800    0.0000 H       1  UNL1        0.0621
     61 H          11.7723   -7.5000    0.0000 H       1  UNL1        0.0230
     62 H          12.3923   -8.1200    0.0000 H       1  UNL1        0.0230
     63 H          13.0123   -7.5000    0.0000 H       1  UNL1        0.0230
     64 H           3.1951    4.1900    0.0000 H       1  UNL1        0.0655
     65 H           5.7741    6.9631    0.0000 H       1  UNL1        0.0660
     66 H           6.0010    7.8100    0.0000 H       1  UNL1        0.0660
     67 H           5.1541    8.0369    0.0000 H       1  UNL1        0.0660
     68 H           1.6900    6.0369    0.0000 H       1  UNL1        0.0660
     69 H           1.4631    5.1900    0.0000 H       1  UNL1        0.0660
     70 H           2.3100    4.9631    0.0000 H       1  UNL1        0.0660
@<TRIPOS>BOND
     1     1     5    1
     2     1    55    1
     3     2    11    1
     4     2    56    1
     5     3    24    1
     6     3    27    1
     7     4    26    1
     8     4    28    1
     9     5     6    1
    10     5     9    1
    11     5    29    1
    12     6     7    1
    13     6    30    1
    14     6    31    1
    15     7     8    1
    16     7    32    1
    17     7    33    1
    18     8    10    1
    19     8    34    1
    20     8    35    1
    21     9    11    1
    22     9    36    1
    23     9    37    1
    24    10    12    1
    25    10    38    1
    26    10    39    1
    27    11    14    1
    28    11    40    1
    29    12    13    1
    30    12    41    1
    31    12    42    1
    32    13    15    1
    33    13    43    1
    34    13    44    1
    35    14    17    1
    36    14    45    1
    37    14    46    1
    38    15    16    1
    39    15    47    1
    40    15    48    1
    41    16    18    1
    42    16    49    1
    43    16    50    1
    44    17    19    1
    45    17    51    1
    46    17    52    1
    47    18    20    1
    48    18    53    1
    49    18    54    1
    50    19    21   ar
    51    19    22   ar
    52    20    23    1
    53    20    57    1
    54    20    58    1
    55    21    24   ar
    56    21    59    1
    57    22    25   ar
    58    22    60    1
    59    23    61    1
    60    23    62    1
    61    23    63    1
    62    24    26   ar
    63    25    26   ar
    64    25    64    1
    65    27    65    1
    66    27    66    1
    67    27    67    1
    68    28    68    1
    69    28    69    1
    70    28    70    1
