@<TRIPOS>MOLECULE
IMPHY003333
 26 27 0 0 0
SMALL
GASTEIGER

@<TRIPOS>ATOM
      1 O           6.3580   -0.8797    0.0000 O.2     1  UNL1       -0.4183
      2 O           2.8660   -0.8450    0.0000 O.3     1  UNL1       -0.4884
      3 O           2.8660    1.1550    0.0000 O.3     1  UNL1       -0.4913
      4 O           4.5981   -1.8450    0.0000 O.3     1  UNL1       -0.5008
      5 O           8.1282   -0.8692    0.0000 O.2     1  UNL1       -0.2452
      6 C           5.4641    0.6550    0.0000 C.ar    1  UNL1        0.0250
      7 C           5.4641   -0.3450    0.0000 C.ar    1  UNL1        0.1841
      8 C           4.5981   -0.8450    0.0000 C.ar    1  UNL1        0.2061
      9 C           3.7320   -0.3450    0.0000 C.ar    1  UNL1        0.2071
     10 C           3.7320    0.6550    0.0000 C.ar    1  UNL1        0.1660
     11 C           4.5981    1.1550    0.0000 C.ar    1  UNL1       -0.0054
     12 C           6.3580    1.1897    0.0000 C.ar    1  UNL1       -0.0441
     13 C           7.2641    0.6758    0.0000 C.ar    1  UNL1        0.0236
     14 C           7.2641   -0.3658    0.0000 C.ar    1  UNL1        0.3373
     15 C           2.0000   -0.3450    0.0000 C.3     1  UNL1        0.0791
     16 C           2.8660    2.1550    0.0000 C.3     1  UNL1        0.0790
     17 H           4.5981    1.7750    0.0000 H       1  UNL1        0.0662
     18 H           6.3509    1.8096    0.0000 H       1  UNL1        0.0627
     19 H           7.7998    0.9879    0.0000 H       1  UNL1        0.0689
     20 H           4.0611   -2.1550    0.0000 H       1  UNL1        0.2924
     21 H           2.3100    0.1919    0.0000 H       1  UNL1        0.0660
     22 H           1.4631   -0.0350    0.0000 H       1  UNL1        0.0660
     23 H           1.6900   -0.8819    0.0000 H       1  UNL1        0.0660
     24 H           3.4860    2.1550    0.0000 H       1  UNL1        0.0660
     25 H           2.8660    2.7750    0.0000 H       1  UNL1        0.0660
     26 H           2.2460    2.1550    0.0000 H       1  UNL1        0.0660
@<TRIPOS>BOND
     1     1     7   ar
     2     1    14   ar
     3     2     9    1
     4     2    15    1
     5     3    10    1
     6     3    16    1
     7     4     8    1
     8     4    20    1
     9     5    14    2
    10     6     7   ar
    11     6    11   ar
    12     6    12   ar
    13     7     8   ar
    14     8     9   ar
    15     9    10   ar
    16    10    11   ar
    17    11    17    1
    18    12    13   ar
    19    12    18    1
    20    13    14   ar
    21    13    19    1
    22    15    21    1
    23    15    22    1
    24    15    23    1
    25    16    24    1
    26    16    25    1
    27    16    26    1
