@<TRIPOS>MOLECULE
IMPHY010427
 79 85 0 0 0
SMALL
GASTEIGER

@<TRIPOS>ATOM
      1 O          11.4769   -1.2313    0.0000 O.3     1  UNL1       -0.3413
      2 O          12.1691   -2.3770    0.0000 O.3     1  UNL1       -0.3479
      3 O           6.0010    2.3382    0.0000 O.3     1  UNL1       -0.3480
      4 O           4.2690    2.3382    0.0000 O.3     1  UNL1       -0.3467
      5 O           4.2690   -0.6618    0.0000 O.3     1  UNL1       -0.3780
      6 N           2.5369    0.3382    0.0000 N.3     1  UNL1       -0.3231
      7 C          11.3823   -0.7349    0.0000 C.3     1  UNL1        0.0313
      8 C          11.3862    0.2651    0.0000 C.3     1  UNL1        0.0840
      9 C          12.3274   -1.0433    0.0000 C.3     1  UNL1        0.0234
     10 C          10.5221    0.7684    0.0000 C.3     1  UNL1       -0.0078
     11 C           9.6541    0.2717    0.0000 C.3     1  UNL1       -0.0299
     12 C          12.8181   -1.9010    0.0000 C.3     1  UNL1        0.1714
     13 C          12.3336    0.5662    0.0000 C.3     1  UNL1       -0.0223
     14 C          10.5144   -1.2316    0.0000 C.3     1  UNL1       -0.0419
     15 C          12.9141   -0.2408    0.0000 C.3     1  UNL1       -0.0420
     16 C          11.2803   -1.7178    0.0000 C.3     1  UNL1        0.0596
     17 C           8.7461    0.7821    0.0000 C.3     1  UNL1       -0.0259
     18 C           9.6503   -0.7282    0.0000 C.3     1  UNL1       -0.0487
     19 C          10.5422    1.8098    0.0000 C.3     1  UNL1       -0.0470
     20 C           8.7421    1.8237    0.0000 C.3     1  UNL1       -0.0330
     21 C           9.6462    2.3410    0.0000 C.3     1  UNL1       -0.0493
     22 C           7.8171    0.2216    0.0000 C.3     1  UNL1       -0.0448
     23 C          13.7128   -2.3477    0.0000 C.3     1  UNL1       -0.0102
     24 C           7.8088    2.3770    0.0000 C.3     1  UNL1       -0.0232
     25 C           8.7500   -0.2179    0.0000 C.3     1  UNL1       -0.0590
     26 C           6.8712    0.7532    0.0000 C.3     1  UNL1       -0.0260
     27 C           6.8671    1.8382    0.0000 C.3     1  UNL1        0.0620
     28 C           5.1350    1.8382    0.0000 C.3     1  UNL1        0.1623
     29 C           5.1350    0.8382    0.0000 C.3     1  UNL1        0.0263
     30 C           4.2690    0.3382    0.0000 C.3     1  UNL1        0.0804
     31 C           3.4030    1.8382    0.0000 C.3     1  UNL1        0.0764
     32 C           3.4030    0.8382    0.0000 C.3     1  UNL1        0.0579
     33 C           2.5369    2.3382    0.0000 C.3     1  UNL1       -0.0370
     34 C           5.1350   -1.1618    0.0000 C.3     1  UNL1        0.0369
     35 H          13.1354   -1.3070    0.0000 H       1  UNL1        0.0360
     36 H          11.2631    1.1849    0.0000 H       1  UNL1        0.0332
     37 H          10.3886   -0.1561    0.0000 H       1  UNL1        0.0310
     38 H          12.8721    0.8733    0.0000 H       1  UNL1        0.0293
     39 H          12.0847    1.1340    0.0000 H       1  UNL1        0.0293
     40 H          10.1140   -1.7050    0.0000 H       1  UNL1        0.0272
     41 H          10.9111   -1.7081    0.0000 H       1  UNL1        0.0272
     42 H          13.3733   -0.6573    0.0000 H       1  UNL1        0.0271
     43 H          13.3765    0.1721    0.0000 H       1  UNL1        0.0271
     44 H          10.6848   -1.5455    0.0000 H       1  UNL1        0.0567
     45 H          11.0051   -2.2734    0.0000 H       1  UNL1        0.0567
     46 H           9.0401   -0.6182    0.0000 H       1  UNL1        0.0268
     47 H           9.4360   -1.3100    0.0000 H       1  UNL1        0.0268
     48 H          11.1509    1.6920    0.0000 H       1  UNL1        0.0269
     49 H          10.7624    2.3894    0.0000 H       1  UNL1        0.0269
     50 H           8.7486    2.6737    0.0000 H       1  UNL1        0.0307
     51 H          10.0489    2.8124    0.0000 H       1  UNL1        0.0268
     52 H           9.2507    2.8186    0.0000 H       1  UNL1        0.0268
     53 H           7.4253   -0.2589    0.0000 H       1  UNL1        0.0271
     54 H           8.2235   -0.2466    0.0000 H       1  UNL1        0.0271
     55 H          13.4359   -2.9024    0.0000 H       1  UNL1        0.0281
     56 H          14.2675   -2.6246    0.0000 H       1  UNL1        0.0281
     57 H          13.9898   -1.7930    0.0000 H       1  UNL1        0.0281
     58 H           8.2116    2.8484    0.0000 H       1  UNL1        0.0293
     59 H           7.4133    2.8545    0.0000 H       1  UNL1        0.0293
     60 H           8.1299   -0.2203    0.0000 H       1  UNL1        0.0235
     61 H           8.7523   -0.8379    0.0000 H       1  UNL1        0.0235
     62 H           9.3699   -0.2155    0.0000 H       1  UNL1        0.0235
     63 H           6.2600    0.8569    0.0000 H       1  UNL1        0.0290
     64 H           6.6644    0.1687    0.0000 H       1  UNL1        0.0290
     65 H           6.8683    2.4582    0.0000 H       1  UNL1        0.0597
     66 H           5.1350    2.4582    0.0000 H       1  UNL1        0.0910
     67 H           5.3471    0.2556    0.0000 H       1  UNL1        0.0340
     68 H           5.7456    0.9458    0.0000 H       1  UNL1        0.0340
     69 H           4.8059    0.0282    0.0000 H       1  UNL1        0.0614
     70 H           3.4030    2.4582    0.0000 H       1  UNL1        0.0610
     71 H           3.4030    0.2182    0.0000 H       1  UNL1        0.0509
     72 H           2.8469    2.8751    0.0000 H       1  UNL1        0.0255
     73 H           2.0000    2.6482    0.0000 H       1  UNL1        0.0255
     74 H           2.2269    1.8012    0.0000 H       1  UNL1        0.0255
     75 H           2.0000    0.6482    0.0000 H       1  UNL1        0.1186
     76 H           2.5369   -0.2818    0.0000 H       1  UNL1        0.1186
     77 H           4.8250   -1.6988    0.0000 H       1  UNL1        0.0524
     78 H           5.6720   -1.4718    0.0000 H       1  UNL1        0.0524
     79 H           5.4450   -0.6249    0.0000 H       1  UNL1        0.0524
@<TRIPOS>BOND
     1     1     8    1
     2     1    12    1
     3     2    12    1
     4     2    16    1
     5    27     3    1
     6    28     3    1
     7     4    28    1
     8     4    31    1
     9    30     5    1
    10     5    34    1
    11    32     6    1
    12     6    75    1
    13     6    76    1
    14     7     8    1
    15     7     9    1
    16     7    14    1
    17     7    16    1
    18     8    10    1
    19     8    13    1
    20     9    12    1
    21     9    15    1
    22     9    35    1
    23    10    11    1
    24    10    19    1
    25    10    36    1
    26    11    17    1
    27    11    18    1
    28    11    37    1
    29    12    23    1
    30    13    15    1
    31    13    38    1
    32    13    39    1
    33    14    18    1
    34    14    40    1
    35    14    41    1
    36    15    42    1
    37    15    43    1
    38    16    44    1
    39    16    45    1
    40    17    20    1
    41    17    22    1
    42    17    25    1
    43    18    46    1
    44    18    47    1
    45    19    21    1
    46    19    48    1
    47    19    49    1
    48    20    21    1
    49    20    24    1
    50    20    50    1
    51    21    51    1
    52    21    52    1
    53    22    26    1
    54    22    53    1
    55    22    54    1
    56    23    55    1
    57    23    56    1
    58    23    57    1
    59    24    27    1
    60    24    58    1
    61    24    59    1
    62    25    60    1
    63    25    61    1
    64    25    62    1
    65    26    27    1
    66    26    63    1
    67    26    64    1
    68    27    65    1
    69    28    29    1
    70    28    66    1
    71    29    30    1
    72    29    67    1
    73    29    68    1
    74    30    32    1
    75    30    69    1
    76    31    32    1
    77    31    33    1
    78    31    70    1
    79    32    71    1
    80    33    72    1
    81    33    73    1
    82    33    74    1
    83    34    77    1
    84    34    78    1
    85    34    79    1
