@<TRIPOS>MOLECULE
IMPHY010998
 37 38 0 0 0
SMALL
GASTEIGER

@<TRIPOS>ATOM
      1 O           6.9343   -1.8100    0.0000 O.3     1  UNL1       -0.4457
      2 O           3.6744    0.4981    0.0000 O.3     1  UNL1       -0.5030
      3 O           5.2022    2.1900    0.0000 O.3     1  UNL1       -0.4804
      4 O           8.6663   -0.8100    0.0000 O.3     1  UNL1       -0.4780
      5 O           4.2174    1.3637    0.0000 O.2     1  UNL1       -0.2507
      6 O           6.0682   -3.3100    0.0000 O.2     1  UNL1       -0.2449
      7 O           7.8003    0.6900    0.0000 O.2     1  UNL1       -0.2468
      8 O           2.5381   -0.2858    0.0000 O.3     1  UNL1       -0.5009
      9 O           2.5381   -2.3342    0.0000 O.3     1  UNL1       -0.5032
     10 O           7.8003    2.6900    0.0000 O.3     1  UNL1       -0.4806
     11 O           6.0682    2.6900    0.0000 O.2     1  UNL1       -0.2510
     12 C           6.0682   -0.3100    0.0000 C.3     1  UNL1        0.0496
     13 C           6.0682    0.6900    0.0000 C.3     1  UNL1        0.0771
     14 C           6.9343   -0.8100    0.0000 C.3     1  UNL1        0.2066
     15 C           5.2022   -0.8100    0.0000 C.ar    1  UNL1        0.0198
     16 C           6.9343    1.1900    0.0000 C.3     1  UNL1        0.0583
     17 C           5.2022   -1.8100    0.0000 C.ar    1  UNL1        0.0697
     18 C           4.3083   -0.2753    0.0000 C.ar    1  UNL1        0.1664
     19 C           5.2022    1.1900    0.0000 C.2     1  UNL1        0.3091
     20 C           6.0682   -2.3100    0.0000 C.2     1  UNL1        0.3405
     21 C           7.8003   -0.3100    0.0000 C.2     1  UNL1        0.3466
     22 C           4.3083   -2.3447    0.0000 C.ar    1  UNL1       -0.0020
     23 C           3.4022   -0.7892    0.0000 C.ar    1  UNL1        0.2009
     24 C           3.4022   -1.8308    0.0000 C.ar    1  UNL1        0.1628
     25 C           6.9343    2.1900    0.0000 C.2     1  UNL1        0.3055
     26 H           5.3321    0.1150    0.0000 H       1  UNL1        0.0400
     27 H           6.6052    0.3800    0.0000 H       1  UNL1        0.0426
     28 H           7.4712   -1.1200    0.0000 H       1  UNL1        0.0859
     29 H           7.1463    0.6074    0.0000 H       1  UNL1        0.0386
     30 H           7.5449    1.2977    0.0000 H       1  UNL1        0.0386
     31 H           4.3154   -2.9646    0.0000 H       1  UNL1        0.0663
     32 H           3.0626    0.3975    0.0000 H       1  UNL1        0.2923
     33 H           4.6653    2.5000    0.0000 H       1  UNL1        0.2951
     34 H           9.2033   -0.5000    0.0000 H       1  UNL1        0.2952
     35 H           2.0000   -0.5938    0.0000 H       1  UNL1        0.2924
     36 H           2.5405   -2.9542    0.0000 H       1  UNL1        0.2923
     37 H           7.8003    3.3100    0.0000 H       1  UNL1        0.2951
@<TRIPOS>BOND
     1     1    14    1
     2     1    20    1
     3     2    18    1
     4     2    32    1
     5     3    19    1
     6     3    33    1
     7     4    21    1
     8     4    34    1
     9     5    19    2
    10     6    20    2
    11     7    21    2
    12     8    23    1
    13     8    35    1
    14     9    24    1
    15     9    36    1
    16    10    25    1
    17    10    37    1
    18    11    25    2
    19    12    13    1
    20    12    14    1
    21    12    15    1
    22    12    26    1
    23    13    16    1
    24    13    19    1
    25    13    27    1
    26    14    21    1
    27    14    28    1
    28    15    17   ar
    29    15    18   ar
    30    16    25    1
    31    16    29    1
    32    16    30    1
    33    17    20    1
    34    17    22   ar
    35    18    23   ar
    36    22    24   ar
    37    22    31    1
    38    23    24   ar
