@<TRIPOS>MOLECULE
IMPHY012594
 17 18 0 0 0
SMALL
GASTEIGER

@<TRIPOS>ATOM
      1 S           4.4851   -0.3292    0.0000 S.3     1  UNL1       -0.1213
      2 O           2.0000    0.4755    0.0000 O.2     1  UNL1       -0.4667
      3 C           4.4851    1.2803    0.0000 C.3     1  UNL1       -0.0143
      4 C           3.5388    0.9755    0.0000 C.ar    1  UNL1        0.0048
      5 C           3.5388   -0.0245    0.0000 C.ar    1  UNL1        0.0517
      6 C           5.0687    0.4755    0.0000 C.3     1  UNL1        0.0025
      7 C           2.5878   -0.3335    0.0000 C.ar    1  UNL1        0.1154
      8 C           2.5878    1.2846    0.0000 C.ar    1  UNL1        0.0963
      9 C           2.2788   -1.2846    0.0000 C.3     1  UNL1       -0.0053
     10 H           5.0224    1.5895    0.0000 H       1  UNL1        0.0322
     11 H           4.2340    1.8472    0.0000 H       1  UNL1        0.0322
     12 H           5.5295    0.0608    0.0000 H       1  UNL1        0.0383
     13 H           5.5295    0.8903    0.0000 H       1  UNL1        0.0383
     14 H           2.3962    1.8742    0.0000 H       1  UNL1        0.1032
     15 H           1.6891   -1.0930    0.0000 H       1  UNL1        0.0308
     16 H           2.0872   -1.8742    0.0000 H       1  UNL1        0.0308
     17 H           2.8684   -1.4761    0.0000 H       1  UNL1        0.0308
@<TRIPOS>BOND
     1     1     5    1
     2     1     6    1
     3     2     7   ar
     4     2     8   ar
     5     3     4    1
     6     3     6    1
     7     3    10    1
     8     3    11    1
     9     4     5   ar
    10     4     8   ar
    11     5     7   ar
    12     6    12    1
    13     6    13    1
    14     7     9    1
    15     8    14    1
    16     9    15    1
    17     9    16    1
    18     9    17    1
