@<TRIPOS>MOLECULE
IMPHY001237
 65 68 0 0 0
SMALL
GASTEIGER

@<TRIPOS>ATOM
      1 O           5.9362    1.3720    0.0000 O.3     1  UNL1       -0.3860
      2 O          11.4762    0.4836    0.0000 O.3     1  UNL1       -0.3945
      3 O           6.0010   -0.4933    0.0000 O.3     1  UNL1       -0.3459
      4 O           4.2690   -0.4933    0.0000 O.3     1  UNL1       -0.3405
      5 O           6.0010   -2.4933    0.0000 O.3     1  UNL1       -0.3841
      6 O           4.2690   -3.4933    0.0000 O.3     1  UNL1       -0.3864
      7 O           2.5369   -2.4933    0.0000 O.3     1  UNL1       -0.3865
      8 O           2.5369    0.5067    0.0000 O.3     1  UNL1       -0.3924
      9 C           9.0142    1.6690    0.0000 C.3     1  UNL1       -0.0265
     10 C           9.9157    1.2351    0.0000 C.3     1  UNL1       -0.0025
     11 C           9.0890    0.6718    0.0000 C.3     1  UNL1       -0.0295
     12 C           8.1880    2.2323    0.0000 C.3     1  UNL1       -0.0293
     13 C           7.2324    1.9375    0.0000 C.3     1  UNL1       -0.0066
     14 C           8.3559   -0.0084    0.0000 C.3     1  UNL1       -0.0467
     15 C           8.2003    3.2263    0.0000 C.3     1  UNL1       -0.0404
     16 C           6.8671    1.0067    0.0000 C.3     1  UNL1        0.0924
     17 C           7.3671    0.1406    0.0000 C.3     1  UNL1       -0.0213
     18 C          10.4790    0.4089    0.0000 C.3     1  UNL1        0.0501
     19 C           6.6623    2.7519    0.0000 C.3     1  UNL1       -0.0470
     20 C          10.3496    2.1361    0.0000 C.3     1  UNL1       -0.0569
     21 C           7.2593    3.5468    0.0000 C.3     1  UNL1       -0.0498
     22 C           9.0170    3.8033    0.0000 C.3     1  UNL1       -0.0621
     23 C           6.0010    0.5067    0.0000 C.3     1  UNL1        0.0798
     24 C           5.1350   -0.9933    0.0000 C.3     1  UNL1        0.1880
     25 C           5.1350   -1.9933    0.0000 C.3     1  UNL1        0.1341
     26 C           4.2690   -2.4933    0.0000 C.3     1  UNL1        0.1141
     27 C           3.4030   -0.9933    0.0000 C.3     1  UNL1        0.1130
     28 C           3.4030   -1.9933    0.0000 C.3     1  UNL1        0.1119
     29 C           2.5369   -0.4933    0.0000 C.3     1  UNL1        0.0730
     30 H           9.4391    2.4052    0.0000 H       1  UNL1        0.0313
     31 H           9.6188    0.0071    0.0000 H       1  UNL1        0.0310
     32 H           8.9419    2.6248    0.0000 H       1  UNL1        0.0310
     33 H           6.3884    1.8372    0.0000 H       1  UNL1        0.0332
     34 H           8.1294   -0.5855    0.0000 H       1  UNL1        0.0269
     35 H           8.8682   -0.3577    0.0000 H       1  UNL1        0.0269
     36 H           8.7490    2.9378    0.0000 H       1  UNL1        0.0301
     37 H           6.7746   -0.0421    0.0000 H       1  UNL1        0.0294
     38 H           7.4134   -0.4776    0.0000 H       1  UNL1        0.0294
     39 H           9.9139    0.1539    0.0000 H       1  UNL1        0.0563
     40 H          10.6320   -0.1919    0.0000 H       1  UNL1        0.0563
     41 H           6.2084    3.1743    0.0000 H       1  UNL1        0.0269
     42 H           6.1946    2.3449    0.0000 H       1  UNL1        0.0269
     43 H          10.9082    1.8671    0.0000 H       1  UNL1        0.0236
     44 H          10.6186    2.6947    0.0000 H       1  UNL1        0.0236
     45 H           9.7910    2.4051    0.0000 H       1  UNL1        0.0236
     46 H           7.5197    4.1094    0.0000 H       1  UNL1        0.0268
     47 H           6.7271    3.8649    0.0000 H       1  UNL1        0.0268
     48 H           9.3748    3.2970    0.0000 H       1  UNL1        0.0233
     49 H           9.5234    4.1611    0.0000 H       1  UNL1        0.0233
     50 H           8.6592    4.3097    0.0000 H       1  UNL1        0.0233
     51 H           5.7890    1.0893    0.0000 H       1  UNL1        0.0589
     52 H           5.3905    0.3990    0.0000 H       1  UNL1        0.0589
     53 H           5.8438    1.9851    0.0000 H       1  UNL1        0.2103
     54 H          11.8255   -0.0286    0.0000 H       1  UNL1        0.2094
     55 H           5.1350   -0.3733    0.0000 H       1  UNL1        0.0937
     56 H           5.1350   -2.6133    0.0000 H       1  UNL1        0.0671
     57 H           3.7320   -2.8033    0.0000 H       1  UNL1        0.0648
     58 H           3.4030   -0.3733    0.0000 H       1  UNL1        0.0647
     59 H           2.8660   -1.6833    0.0000 H       1  UNL1        0.0647
     60 H           6.5380   -2.1833    0.0000 H       1  UNL1        0.2101
     61 H           1.9264   -0.3857    0.0000 H       1  UNL1        0.0584
     62 H           2.3249   -1.0759    0.0000 H       1  UNL1        0.0584
     63 H           3.7320   -3.8033    0.0000 H       1  UNL1        0.2100
     64 H           2.0000   -2.1833    0.0000 H       1  UNL1        0.2100
     65 H           2.0000    0.8167    0.0000 H       1  UNL1        0.2095
@<TRIPOS>BOND
     1    16     1    1
     2     1    53    1
     3     2    18    1
     4     2    54    1
     5     3    23    1
     6    24     3    1
     7     4    24    1
     8     4    27    1
     9    25     5    1
    10     5    60    1
    11    26     6    1
    12     6    63    1
    13    28     7    1
    14     7    64    1
    15     8    29    1
    16     8    65    1
    17     9    10    1
    18     9    11    1
    19     9    12    1
    20     9    30    1
    21    10    11    1
    22    10    18    1
    23    10    20    1
    24    11    14    1
    25    11    31    1
    26    12    13    1
    27    12    15    1
    28    12    32    1
    29    13    16    1
    30    13    19    1
    31    13    33    1
    32    14    17    1
    33    14    34    1
    34    14    35    1
    35    15    21    1
    36    15    22    1
    37    15    36    1
    38    16    17    1
    39    16    23    1
    40    17    37    1
    41    17    38    1
    42    18    39    1
    43    18    40    1
    44    19    21    1
    45    19    41    1
    46    19    42    1
    47    20    43    1
    48    20    44    1
    49    20    45    1
    50    21    46    1
    51    21    47    1
    52    22    48    1
    53    22    49    1
    54    22    50    1
    55    23    51    1
    56    23    52    1
    57    24    25    1
    58    24    55    1
    59    25    26    1
    60    25    56    1
    61    26    28    1
    62    26    57    1
    63    27    28    1
    64    27    29    1
    65    27    58    1
    66    28    59    1
    67    29    61    1
    68    29    62    1
