@<TRIPOS>MOLECULE
IMPHY005222
 39 39 0 0 0
SMALL
GASTEIGER

@<TRIPOS>ATOM
      1 C           2.8660   -0.7500    0.0000 C.3     1  UNL1       -0.0196
      2 C           2.0000   -1.2500    0.0000 C.3     1  UNL1       -0.0428
      3 C           3.7320   -1.2500    0.0000 C.3     1  UNL1       -0.0428
      4 C           2.0000   -2.2500    0.0000 C.3     1  UNL1       -0.0315
      5 C           3.7320   -2.2500    0.0000 C.3     1  UNL1       -0.0315
      6 C           2.8660    0.2500    0.0000 C.2     1  UNL1       -0.0732
      7 C           2.8660   -2.7500    0.0000 C.2     1  UNL1       -0.0766
      8 C           3.7320    0.7500    0.0000 C.3     1  UNL1       -0.0283
      9 C           3.7320    1.7500    0.0000 C.3     1  UNL1       -0.0308
     10 C           2.0000    0.7500    0.0000 C.2     1  UNL1       -0.0992
     11 C           2.8660   -3.7500    0.0000 C.2     1  UNL1       -0.0994
     12 C           4.5981    2.2500    0.0000 C.2     1  UNL1       -0.0850
     13 C           4.5981    3.2500    0.0000 C.2     1  UNL1       -0.0796
     14 C           5.4641    3.7500    0.0000 C.3     1  UNL1       -0.0440
     15 C           3.7320    3.7500    0.0000 C.3     1  UNL1       -0.0440
     16 H           3.4030   -0.4400    0.0000 H       1  UNL1        0.0346
     17 H           4.3426   -1.3577    0.0000 H       1  UNL1        0.0274
     18 H           3.9441   -0.6674    0.0000 H       1  UNL1        0.0274
     19 H           1.7880   -0.6674    0.0000 H       1  UNL1        0.0274
     20 H           1.3894   -1.3577    0.0000 H       1  UNL1        0.0274
     21 H           3.9441   -2.8326    0.0000 H       1  UNL1        0.0310
     22 H           4.3426   -2.1423    0.0000 H       1  UNL1        0.0310
     23 H           1.3894   -2.1423    0.0000 H       1  UNL1        0.0310
     24 H           1.7880   -2.8326    0.0000 H       1  UNL1        0.0310
     25 H           3.9441    0.1674    0.0000 H       1  UNL1        0.0313
     26 H           4.3426    0.8577    0.0000 H       1  UNL1        0.0313
     27 H           3.5200    2.3326    0.0000 H       1  UNL1        0.0310
     28 H           3.1215    1.6423    0.0000 H       1  UNL1        0.0310
     29 H           2.0000    1.3700    0.0000 H       1  UNL1        0.0534
     30 H           1.4631    0.4400    0.0000 H       1  UNL1        0.0534
     31 H           2.3291   -4.0600    0.0000 H       1  UNL1        0.0534
     32 H           3.4030   -4.0600    0.0000 H       1  UNL1        0.0534
     33 H           5.1350    1.9400    0.0000 H       1  UNL1        0.0572
     34 H           5.7741    3.2131    0.0000 H       1  UNL1        0.0274
     35 H           6.0010    4.0600    0.0000 H       1  UNL1        0.0274
     36 H           5.1541    4.2869    0.0000 H       1  UNL1        0.0274
     37 H           4.0420    4.2869    0.0000 H       1  UNL1        0.0274
     38 H           3.1951    4.0600    0.0000 H       1  UNL1        0.0274
     39 H           3.4220    3.2131    0.0000 H       1  UNL1        0.0274
@<TRIPOS>BOND
     1     1     2    1
     2     1     3    1
     3     1     6    1
     4     1    16    1
     5     2     4    1
     6     2    19    1
     7     2    20    1
     8     3     5    1
     9     3    17    1
    10     3    18    1
    11     4     7    1
    12     4    23    1
    13     4    24    1
    14     5     7    1
    15     5    21    1
    16     5    22    1
    17     6     8    1
    18     6    10    2
    19     7    11    2
    20     8     9    1
    21     8    25    1
    22     8    26    1
    23     9    12    1
    24     9    27    1
    25     9    28    1
    26    10    29    1
    27    10    30    1
    28    11    31    1
    29    11    32    1
    30    12    13    2
    31    12    33    1
    32    13    14    1
    33    13    15    1
    34    14    34    1
    35    14    35    1
    36    14    36    1
    37    15    37    1
    38    15    38    1
    39    15    39    1
