@<TRIPOS>MOLECULE
IMPHY010713
 40 44 0 0 0
SMALL
GASTEIGER

@<TRIPOS>ATOM
      1 O           5.8817   -6.4113    0.0000 O.3     1  UNL1       -0.3634
      2 C           4.6016   -5.9810    0.0000 C.3     1  UNL1        0.1138
      3 C           3.4540   -6.6652    0.0000 C.3     1  UNL1        0.1868
      4 C           2.2953   -5.9810    0.0000 C.3     1  UNL1        0.0324
      5 C           1.1366   -6.6652    0.0000 C.3     1  UNL1        0.0496
      6 C           0.0000   -5.9810    0.0000 C.2     1  UNL1       -0.0215
      7 C           0.0000   -4.6568    0.0000 C.2     1  UNL1        0.0329
      8 C           1.1366   -3.9947    0.0000 C.2     1  UNL1        0.1718
      9 C           2.2953   -4.6568    0.0000 C.3     1  UNL1        0.0567
     10 C           3.4540   -3.9947    0.0000 C.3     1  UNL1        0.0233
     11 C           4.6016   -4.6568    0.0000 C.3     1  UNL1        0.0401
     12 C           5.8817   -4.2485    0.0000 C.2     1  UNL1       -0.0299
     13 C           6.6652   -3.1781    0.0000 C.2     1  UNL1       -0.0459
     14 C           7.9231   -3.5753    0.0000 C.3     1  UNL1        0.0455
     15 C           7.9231   -4.9106    0.0000 C.3     1  UNL1        0.0356
     16 C           6.6652   -5.3189    0.0000 C.3     1  UNL1        0.0893
     17 O           3.4540   -7.9894    0.0000 O.3     1  UNL1       -0.4504
     18 C           4.6016   -8.6625    0.0000 C.2     1  UNL1        0.3175
     19 O           5.7492   -7.9894    0.0000 O.2     1  UNL1       -0.2501
     20 C           1.8097   -7.8018    0.0000 C.3     1  UNL1        0.1858
     21 O           1.1366   -8.9494    0.0000 O.3     1  UNL1       -0.2201
     22 C           0.4855   -7.8018    0.0000 C.3     1  UNL1        0.0068
     23 O           1.1366   -2.6705    0.0000 O.2     1  UNL1       -0.2914
     24 C           2.2953   -3.3215    0.0000 C.3     1  UNL1        0.0075
     25 C           3.4540   -2.6705    0.0000 C.3     1  UNL1        0.1103
     26 C           4.6016   -1.9863    0.0000 C.2     1  UNL1        0.3171
     27 O           5.7492   -2.6705    0.0000 O.2     1  UNL1       -0.2501
     28 C           4.6016   -3.3215    0.0000 C.3     1  UNL1        0.0063
     29 C           6.2458   -1.8980    0.0000 C.3     1  UNL1        0.0261
     30 C           9.0046   -2.7919    0.0000 C.ar    1  UNL1        0.0220
     31 C          10.2626   -3.2002    0.0000 C.ar    1  UNL1        0.1757
     32 O          11.0350   -2.1408    0.0000 O.2     1  UNL1       -0.4477
     33 C          10.2626   -1.0483    0.0000 C.ar    1  UNL1        0.1794
     34 C           9.0046   -1.4566    0.0000 C.ar    1  UNL1        0.0398
     35 C           4.6016   -9.9867    0.0000 C.3     1  UNL1        0.1212
     36 O           4.6016   -0.6621    0.0000 O.3     1  UNL1       -0.4444
     37 C           5.7492    0.0000    0.0000 C.3     1  UNL1        0.2556
     38 H           4.6016   -7.3052    0.0000 H       1  UNL1        0.0647
     39 H           2.2953   -7.3052    0.0000 H       1  UNL1        0.0361
     40 H           7.4486   -6.4113    0.0000 H       1  UNL1        0.0650
@<TRIPOS>BOND
     1     1     2    1
     2     1    16    1
     3     2     3    1
     4     2    11    1
     5     2    38    1
     6     3     4    1
     7     3    17    1
     8     4     9    1
     9     4     5    1
    10     4    39    1
    11     5     6    1
    12     5    22    1
    13     5    20    1
    14     6     7    2
    15     7     8    1
    16     8     9    1
    17     8    23    2
    18     9    10    1
    19     9    24    1
    20    10    11    1
    21    10    25    1
    22    11    12    1
    23    11    28    1
    24    12    16    1
    25    12    13    2
    26    13    14    1
    27    13    29    1
    28    14    15    1
    29    14    30    1
    30    15    16    1
    31    16    40    1
    32    17    18    1
    33    18    19    2
    34    18    35    1
    35    20    21    1
    36    25    26    1
    37    26    27    2
    38    26    36    1
    39    30    34   ar
    40    30    31   ar
    41    31    32   ar
    42    32    33   ar
    43    33    34   ar
    44    36    37    1
