@<TRIPOS>MOLECULE
IMPHY012030
 16 17 0 0 0
SMALL
GASTEIGER

@<TRIPOS>ATOM
      1 O           3.7320   -1.8100    0.0000 O.2     1  UNL1       -0.2654
      2 O           7.1279    0.1900    0.0000 O.2     1  UNL1       -0.2467
      3 O           2.0000    1.1900    0.0000 O.2     1  UNL1       -0.2466
      4 N           5.5443    0.9947    0.0000 N.ar    1  UNL1       -0.2922
      5 N           5.5443   -0.6147    0.0000 N.ar    1  UNL1       -0.3006
      6 N           3.7320    1.1900    0.0000 N.ar    1  UNL1       -0.2921
      7 N           2.8660   -0.3100    0.0000 N.ar    1  UNL1       -0.2733
      8 C           4.5981    0.6900    0.0000 C.ar    1  UNL1        0.1457
      9 C           4.5981   -0.3100    0.0000 C.ar    1  UNL1        0.1494
     10 C           3.7320   -0.8100    0.0000 C.ar    1  UNL1        0.2797
     11 C           6.1279    0.1900    0.0000 C.ar    1  UNL1        0.3262
     12 C           2.8660    0.6900    0.0000 C.ar    1  UNL1        0.3283
     13 H           5.7369    1.5840    0.0000 H       1  UNL1        0.1718
     14 H           5.7369   -1.2040    0.0000 H       1  UNL1        0.1706
     15 H           3.7320    1.8100    0.0000 H       1  UNL1        0.1718
     16 H           2.3291   -0.6200    0.0000 H       1  UNL1        0.1735
@<TRIPOS>BOND
     1     1    10    2
     2     2    11    2
     3     3    12    2
     4     4     8   ar
     5     4    11   ar
     6     4    13    1
     7     5     9   ar
     8     5    11   ar
     9     5    14    1
    10     6     8   ar
    11     6    12   ar
    12     6    15    1
    13     7    10   ar
    14     7    12   ar
    15     7    16    1
    16     8     9   ar
    17     9    10   ar
