@<TRIPOS>MOLECULE
IMPHY006456
 139 143 0 0 0
SMALL
GASTEIGER

@<TRIPOS>ATOM
      1 MG          6.5691   -0.1010    0.0000 Mg      1  UNL1        0.0000
      2 O           7.9191   -4.4180    0.0000 O.2     2  UNL2        0.0000
      3 O          10.1985   -3.5477    0.0000 O.3     2  UNL2        0.0000
      4 O          10.4041   -1.8279    0.0000 O.2     2  UNL2        0.0000
      5 O          12.9136   -0.5387    0.0000 O.3     2  UNL2        0.0000
      6 O          12.0475   -2.0387    0.0000 O.2     2  UNL2        0.0000
      7 N           8.0035   -0.0992    0.0000 N.2     2  UNL2        1.0000
      8 N           5.1763   -0.0992    0.0000 N.2     2  UNL2        1.0000
      9 N           6.5908   -1.3875    0.0000 N.ar    2  UNL2       -1.0000
     10 N           6.5594    1.1892    0.0000 N.ar    2  UNL2       -1.0000
     11 C           8.5690   -0.7906    0.0000 C.2     2  UNL2        0.0000
     12 C           8.5375    0.6552    0.0000 C.2     2  UNL2        0.0000
     13 C           9.4495   -0.5387    0.0000 C.3     2  UNL2        0.0000
     14 C           9.4495    0.4031    0.0000 C.3     2  UNL2        0.0000
     15 C           7.3453   -1.9531    0.0000 C.ar    2  UNL2        0.0000
     16 C           8.2872   -1.7011    0.0000 C.2     2  UNL2        0.0000
     17 C           4.6424   -0.8222    0.0000 C.2     2  UNL2        0.0000
     18 C           4.6424    0.6238    0.0000 C.2     2  UNL2        0.0000
     19 C           5.8362   -1.9846    0.0000 C.ar    2  UNL2        0.0000
     20 C           7.3453    1.8177    0.0000 C.ar    2  UNL2        0.0000
     21 C           5.8049    1.7862    0.0000 C.ar    2  UNL2        0.0000
     22 C           8.2556    1.5341    0.0000 C.2     2  UNL2        0.0000
     23 C           7.0618   -2.8635    0.0000 C.ar    2  UNL2        0.0000
     24 C           8.8119   -2.5098    0.0000 C.3     2  UNL2        0.0000
     25 C           4.9259   -1.7011    0.0000 C.2     2  UNL2        0.0000
     26 C           6.1198   -2.8635    0.0000 C.ar    2  UNL2        0.0000
     27 C          10.3155   -1.0387    0.0000 C.3     2  UNL2        0.0000
     28 C           4.8945    1.5341    0.0000 C.2     2  UNL2        0.0000
     29 C           3.7320   -0.5701    0.0000 C.2     2  UNL2        0.0000
     30 C           3.7320    0.3717    0.0000 C.2     2  UNL2        0.0000
     31 C           7.8485   -3.4205    0.0000 C.2     2  UNL2        0.0000
     32 C          10.2452    1.0087    0.0000 C.3     2  UNL2        0.0000
     33 C           7.0303    2.6966    0.0000 C.ar    2  UNL2        0.0000
     34 C           6.0883    2.6966    0.0000 C.ar    2  UNL2        0.0000
     35 C          11.1815   -0.5387    0.0000 C.3     2  UNL2        0.0000
     36 C           2.8660   -1.0701    0.0000 C.3     2  UNL2        0.0000
     37 C           5.5312   -3.6719    0.0000 C.3     2  UNL2        0.0000
     38 C           9.8048   -2.6285    0.0000 C.2     2  UNL2        0.0000
     39 C           2.9362    0.9772    0.0000 C.3     2  UNL2        0.0000
     40 C           7.6059    3.5143    0.0000 C.3     2  UNL2        0.0000
     41 C           5.4955    3.5019    0.0000 C.2     2  UNL2        0.0000
     42 C           2.0000   -0.5701    0.0000 C.3     2  UNL2        0.0000
     43 C          12.0475   -1.0387    0.0000 C.2     2  UNL2        0.0000
     44 C           5.8966    4.4180    0.0000 C.2     2  UNL2        0.0000
     45 C          11.1914   -3.6664    0.0000 C.3     2  UNL2        0.0000
     46 C          13.7796   -1.0387    0.0000 C.3     2  UNL2        0.0000
     47 C          14.6456   -0.5387    0.0000 C.2     2  UNL2        0.0000
     48 C          15.5116   -1.0388    0.0000 C.2     2  UNL2        0.0000
     49 C          16.3777   -0.5388    0.0000 C.3     2  UNL2        0.0000
     50 C          15.5116   -2.0388    0.0000 C.3     2  UNL2        0.0000
     51 C          17.2437   -1.0388    0.0000 C.3     2  UNL2        0.0000
     52 C          18.1097   -0.5388    0.0000 C.3     2  UNL2        0.0000
     53 C          18.9757   -1.0388    0.0000 C.3     2  UNL2        0.0000
     54 C          19.8418   -0.5388    0.0000 C.3     2  UNL2        0.0000
     55 C          20.7078   -1.0388    0.0000 C.3     2  UNL2        0.0000
     56 C          18.9757   -2.0388    0.0000 C.3     2  UNL2        0.0000
     57 C          21.5738   -0.5389    0.0000 C.3     2  UNL2        0.0000
     58 C          22.4398   -1.0389    0.0000 C.3     2  UNL2        0.0000
     59 C          23.3059   -0.5389    0.0000 C.3     2  UNL2        0.0000
     60 C          24.1719   -1.0389    0.0000 C.3     2  UNL2        0.0000
     61 C          22.4398   -2.0389    0.0000 C.3     2  UNL2        0.0000
     62 C          25.0379   -0.5389    0.0000 C.3     2  UNL2        0.0000
     63 C          25.9039   -1.0389    0.0000 C.3     2  UNL2        0.0000
     64 C          26.7700   -0.5389    0.0000 C.3     2  UNL2        0.0000
     65 C          25.9039   -2.0389    0.0000 C.3     2  UNL2        0.0000
     66 H           7.7384   -0.6596    0.0000 H       2  UNL2        0.0000
     67 H           5.4560    0.4542    0.0000 H       2  UNL2        0.0000
     68 H           9.3737   -1.1540    0.0000 H       2  UNL2        0.0000
     69 H           9.3321    1.0119    0.0000 H       2  UNL2        0.0000
     70 H           8.6722    1.9933    0.0000 H       2  UNL2        0.0000
     71 H           9.1397   -1.9835    0.0000 H       2  UNL2        0.0000
     72 H           4.4702   -2.1216    0.0000 H       2  UNL2        0.0000
     73 H           9.9169   -1.5136    0.0000 H       2  UNL2        0.0000
     74 H          10.7140   -1.5136    0.0000 H       2  UNL2        0.0000
     75 H           4.4597    1.9762    0.0000 H       2  UNL2        0.0000
     76 H          10.6207    0.5153    0.0000 H       2  UNL2        0.0000
     77 H          10.7386    1.3842    0.0000 H       2  UNL2        0.0000
     78 H           9.8698    1.5021    0.0000 H       2  UNL2        0.0000
     79 H          11.5800   -0.0638    0.0000 H       2  UNL2        0.0000
     80 H          10.7830   -0.0637    0.0000 H       2  UNL2        0.0000
     81 H           2.4675   -1.5450    0.0000 H       2  UNL2        0.0000
     82 H           3.2646   -1.5450    0.0000 H       2  UNL2        0.0000
     83 H           5.0299   -3.3070    0.0000 H       2  UNL2        0.0000
     84 H           5.1662   -4.1731    0.0000 H       2  UNL2        0.0000
     85 H           6.0324   -4.0368    0.0000 H       2  UNL2        0.0000
     86 H           3.3116    1.4706    0.0000 H       2  UNL2        0.0000
     87 H           2.4428    1.3526    0.0000 H       2  UNL2        0.0000
     88 H           2.5608    0.4838    0.0000 H       2  UNL2        0.0000
     89 H           8.1129    3.1574    0.0000 H       2  UNL2        0.0000
     90 H           7.9628    4.0213    0.0000 H       2  UNL2        0.0000
     91 H           7.0989    3.8712    0.0000 H       2  UNL2        0.0000
     92 H           4.8793    3.4333    0.0000 H       2  UNL2        0.0000
     93 H           2.3100   -0.0331    0.0000 H       2  UNL2        0.0000
     94 H           1.4631   -0.2601    0.0000 H       2  UNL2        0.0000
     95 H           1.6900   -1.1070    0.0000 H       2  UNL2        0.0000
     96 H           6.5128    4.4866    0.0000 H       2  UNL2        0.0000
     97 H           5.5290    4.9173    0.0000 H       2  UNL2        0.0000
     98 H          11.1178   -4.2821    0.0000 H       2  UNL2        0.0000
     99 H          11.8070   -3.7400    0.0000 H       2  UNL2        0.0000
    100 H          11.2650   -3.0508    0.0000 H       2  UNL2        0.0000
    101 H          13.3810   -1.5137    0.0000 H       2  UNL2        0.0000
    102 H          14.1781   -1.5137    0.0000 H       2  UNL2        0.0000
    103 H          14.6456    0.0813    0.0000 H       2  UNL2        0.0000
    104 H          16.7762   -0.0638    0.0000 H       2  UNL2        0.0000
    105 H          15.9791   -0.0638    0.0000 H       2  UNL2        0.0000
    106 H          14.8916   -2.0388    0.0000 H       2  UNL2        0.0000
    107 H          15.5116   -2.6588    0.0000 H       2  UNL2        0.0000
    108 H          16.1316   -2.0388    0.0000 H       2  UNL2        0.0000
    109 H          16.8451   -1.5137    0.0000 H       2  UNL2        0.0000
    110 H          17.6422   -1.5138    0.0000 H       2  UNL2        0.0000
    111 H          18.5083   -0.0639    0.0000 H       2  UNL2        0.0000
    112 H          17.7112   -0.0639    0.0000 H       2  UNL2        0.0000
    113 H          19.5127   -1.3488    0.0000 H       2  UNL2        0.0000
    114 H          20.2403   -0.0639    0.0000 H       2  UNL2        0.0000
    115 H          19.4432   -0.0639    0.0000 H       2  UNL2        0.0000
    116 H          20.3092   -1.5138    0.0000 H       2  UNL2        0.0000
    117 H          21.1063   -1.5138    0.0000 H       2  UNL2        0.0000
    118 H          18.3557   -2.0388    0.0000 H       2  UNL2        0.0000
    119 H          18.9757   -2.6588    0.0000 H       2  UNL2        0.0000
    120 H          19.5957   -2.0388    0.0000 H       2  UNL2        0.0000
    121 H          21.9724   -0.0639    0.0000 H       2  UNL2        0.0000
    122 H          21.1753   -0.0639    0.0000 H       2  UNL2        0.0000
    123 H          21.9029   -1.3489    0.0000 H       2  UNL2        0.0000
    124 H          23.7044   -0.0640    0.0000 H       2  UNL2        0.0000
    125 H          22.9073   -0.0639    0.0000 H       2  UNL2        0.0000
    126 H          23.7733   -1.5138    0.0000 H       2  UNL2        0.0000
    127 H          24.5704   -1.5139    0.0000 H       2  UNL2        0.0000
    128 H          21.8198   -2.0389    0.0000 H       2  UNL2        0.0000
    129 H          22.4398   -2.6589    0.0000 H       2  UNL2        0.0000
    130 H          23.0598   -2.0389    0.0000 H       2  UNL2        0.0000
    131 H          25.4365   -0.0640    0.0000 H       2  UNL2        0.0000
    132 H          24.6394   -0.0640    0.0000 H       2  UNL2        0.0000
    133 H          25.3670   -1.3489    0.0000 H       2  UNL2        0.0000
    134 H          25.2839   -2.0389    0.0000 H       2  UNL2        0.0000
    135 H          25.9039   -2.6589    0.0000 H       2  UNL2        0.0000
    136 H          26.5239   -2.0389    0.0000 H       2  UNL2        0.0000
    137 H          27.0800   -1.0759    0.0000 H       2  UNL2        0.0000
    138 H          27.3069   -0.2290    0.0000 H       2  UNL2        0.0000
    139 H          26.4600   -0.0020    0.0000 H       2  UNL2        0.0000
@<TRIPOS>UNITY_ATOM_ATTR
1 1
charge 2
7 1
charge 1
8 1
charge 1
9 1
charge -1
10 1
charge -1
@<TRIPOS>BOND
     1     2    31    2
     2     3    38    1
     3     3    45    1
     4     4    38    2
     5     5    43    1
     6     5    46    1
     7     6    43    2
     8     7    11    2
     9     7    12    1
    10     7    66    1
    11     8    17    2
    12     8    18    1
    13     8    67    1
    14     9    15   ar
    15     9    19   ar
    16    10    20   ar
    17    10    21   ar
    18    11    13    1
    19    11    16    1
    20    12    14    1
    21    12    22    2
    22    13    14    1
    23    13    27    1
    24    13    68    1
    25    14    32    1
    26    14    69    1
    27    15    16    2
    28    15    23   ar
    29    16    24    1
    30    17    25    1
    31    17    29    1
    32    18    28    2
    33    18    30    1
    34    19    25    2
    35    19    26   ar
    36    20    22    1
    37    20    33   ar
    38    21    28    1
    39    21    34   ar
    40    22    70    1
    41    23    26   ar
    42    23    31    1
    43    24    31    1
    44    24    38    1
    45    24    71    1
    46    25    72    1
    47    26    37    1
    48    27    35    1
    49    27    73    1
    50    27    74    1
    51    28    75    1
    52    29    30    2
    53    29    36    1
    54    30    39    1
    55    32    76    1
    56    32    77    1
    57    32    78    1
    58    33    34   ar
    59    33    40    1
    60    34    41    1
    61    35    43    1
    62    35    79    1
    63    35    80    1
    64    36    42    1
    65    36    81    1
    66    36    82    1
    67    37    83    1
    68    37    84    1
    69    37    85    1
    70    39    86    1
    71    39    87    1
    72    39    88    1
    73    40    89    1
    74    40    90    1
    75    40    91    1
    76    41    44    2
    77    41    92    1
    78    42    93    1
    79    42    94    1
    80    42    95    1
    81    44    96    1
    82    44    97    1
    83    45    98    1
    84    45    99    1
    85    45   100    1
    86    46    47    1
    87    46   101    1
    88    46   102    1
    89    47    48    2
    90    47   103    1
    91    48    49    1
    92    48    50    1
    93    49    51    1
    94    49   104    1
    95    49   105    1
    96    50   106    1
    97    50   107    1
    98    50   108    1
    99    51    52    1
   100    51   109    1
   101    51   110    1
   102    52    53    1
   103    52   111    1
   104    52   112    1
   105    53    54    1
   106    53    56    1
   107    53   113    1
   108    54    55    1
   109    54   114    1
   110    54   115    1
   111    55    57    1
   112    55   116    1
   113    55   117    1
   114    56   118    1
   115    56   119    1
   116    56   120    1
   117    57    58    1
   118    57   121    1
   119    57   122    1
   120    58    59    1
   121    58    61    1
   122    58   123    1
   123    59    60    1
   124    59   124    1
   125    59   125    1
   126    60    62    1
   127    60   126    1
   128    60   127    1
   129    61   128    1
   130    61   129    1
   131    61   130    1
   132    62    63    1
   133    62   131    1
   134    62   132    1
   135    63    64    1
   136    63    65    1
   137    63   133    1
   138    64   137    1
   139    64   138    1
   140    64   139    1
   141    65   134    1
   142    65   135    1
   143    65   136    1
