@<TRIPOS>MOLECULE
IMPHY002895
 23 22 0 0 0
SMALL
GASTEIGER

@<TRIPOS>ATOM
      1 O           5.1350   -1.3450    0.0000 O.3     1  UNL1       -0.3861
      2 O           6.0010    1.1550    0.0000 O.3     1  UNL1       -0.3699
      3 O           4.2690    1.1550    0.0000 O.3     1  UNL1       -0.3869
      4 O           2.5369    0.1550    0.0000 O.3     1  UNL1       -0.3924
      5 O           7.7331    0.1550    0.0000 O.2     1  UNL1       -0.2982
      6 C           5.1350   -0.3450    0.0000 C.3     1  UNL1        0.1158
      7 C           4.2690    0.1550    0.0000 C.3     1  UNL1        0.1068
      8 C           6.0010    0.1550    0.0000 C.3     1  UNL1        0.1412
      9 C           3.4030   -0.3450    0.0000 C.3     1  UNL1        0.0727
     10 C           6.8671   -0.3450    0.0000 C.2     1  UNL1        0.1515
     11 C           6.8671    1.6550    0.0000 C.3     1  UNL1        0.0375
     12 H           5.6720   -0.6550    0.0000 H       1  UNL1        0.0650
     13 H           4.8059    0.4650    0.0000 H       1  UNL1        0.0643
     14 H           6.5380    0.4650    0.0000 H       1  UNL1        0.0699
     15 H           3.0044   -0.8199    0.0000 H       1  UNL1        0.0584
     16 H           3.8015   -0.8199    0.0000 H       1  UNL1        0.0584
     17 H           6.8671   -0.9650    0.0000 H       1  UNL1        0.1055
     18 H           4.5981   -1.6550    0.0000 H       1  UNL1        0.2100
     19 H           3.7320    1.4650    0.0000 H       1  UNL1        0.2100
     20 H           7.1771    1.1181    0.0000 H       1  UNL1        0.0524
     21 H           7.4040    1.9650    0.0000 H       1  UNL1        0.0524
     22 H           6.5571    2.1919    0.0000 H       1  UNL1        0.0524
     23 H           2.0000   -0.1550    0.0000 H       1  UNL1        0.2095
@<TRIPOS>BOND
     1     6     1    1
     2     1    18    1
     3     8     2    1
     4     2    11    1
     5     7     3    1
     6     3    19    1
     7     4     9    1
     8     4    23    1
     9     5    10    2
    10     6     7    1
    11     6     8    1
    12     6    12    1
    13     7     9    1
    14     7    13    1
    15     8    10    1
    16     8    14    1
    17     9    15    1
    18     9    16    1
    19    10    17    1
    20    11    20    1
    21    11    21    1
    22    11    22    1
