@<TRIPOS>MOLECULE
IMPHY001684
 37 39 0 0 0
SMALL
GASTEIGER

@<TRIPOS>ATOM
      1 C           4.5037   -0.8508    0.0000 C.3     1  UNL1       -0.0252
      2 C           5.3302   -1.4146    0.0000 C.3     1  UNL1       -0.0281
      3 C           5.4047   -0.4169    0.0000 C.3     1  UNL1       -0.0314
      4 C           3.6027   -0.4169    0.0000 C.3     1  UNL1       -0.0098
      5 C           5.6272    0.5580    0.0000 C.3     1  UNL1       -0.0457
      6 C           3.3802    0.5580    0.0000 C.3     1  UNL1       -0.0100
      7 C           6.3274   -1.4893    0.0000 C.3     1  UNL1       -0.0593
      8 C           4.7668   -2.2408    0.0000 C.3     1  UNL1       -0.0593
      9 C           5.0037    1.3398    0.0000 C.3     1  UNL1       -0.0314
     10 C           2.7480   -0.9246    0.0000 C.2     1  UNL1       -0.0726
     11 C           4.0037    1.3398    0.0000 C.2     1  UNL1       -0.0727
     12 C           2.3899    0.6446    0.0000 C.3     1  UNL1       -0.0274
     13 C           2.0000   -0.2699    0.0000 C.2     1  UNL1       -0.0842
     14 C           2.6567   -1.9204    0.0000 C.3     1  UNL1       -0.0435
     15 C           3.5698    2.2408    0.0000 C.2     1  UNL1       -0.0992
     16 H           4.0786   -1.5869    0.0000 H       1  UNL1        0.0315
     17 H           6.2452   -0.5435    0.0000 H       1  UNL1        0.0309
     18 H           3.6398   -1.2661    0.0000 H       1  UNL1        0.0354
     19 H           6.1858    0.2890    0.0000 H       1  UNL1        0.0271
     20 H           6.0138    1.0428    0.0000 H       1  UNL1        0.0271
     21 H           3.0451    1.3392    0.0000 H       1  UNL1        0.0354
     22 H           6.2810   -2.1076    0.0000 H       1  UNL1        0.0235
     23 H           6.9456   -1.5356    0.0000 H       1  UNL1        0.0235
     24 H           4.2546   -1.8916    0.0000 H       1  UNL1        0.0235
     25 H           4.4176   -2.7531    0.0000 H       1  UNL1        0.0235
     26 H           5.2791   -2.5901    0.0000 H       1  UNL1        0.0235
     27 H           6.3737   -0.8710    0.0000 H       1  UNL1        0.0235
     28 H           5.5623    1.6089    0.0000 H       1  UNL1        0.0310
     29 H           4.8657    1.9443    0.0000 H       1  UNL1        0.0310
     30 H           2.5085    1.2531    0.0000 H       1  UNL1        0.0313
     31 H           1.7972    0.8264    0.0000 H       1  UNL1        0.0313
     32 H           1.3955   -0.4078    0.0000 H       1  UNL1        0.0572
     33 H           2.0393   -1.8637    0.0000 H       1  UNL1        0.0274
     34 H           2.6000   -2.5378    0.0000 H       1  UNL1        0.0274
     35 H           3.2741   -1.9770    0.0000 H       1  UNL1        0.0274
     36 H           3.9191    2.7531    0.0000 H       1  UNL1        0.0534
     37 H           2.9516    2.2872    0.0000 H       1  UNL1        0.0534
@<TRIPOS>BOND
     1     1     2    1
     2     1     3    1
     3     1     4    1
     4     1    16    1
     5     2     3    1
     6     2     7    1
     7     2     8    1
     8     3     5    1
     9     3    17    1
    10     4     6    1
    11     4    10    1
    12     4    18    1
    13     5     9    1
    14     5    19    1
    15     5    20    1
    16     6    11    1
    17     6    12    1
    18     6    21    1
    19     7    22    1
    20     7    23    1
    21     7    27    1
    22     8    24    1
    23     8    25    1
    24     8    26    1
    25     9    11    1
    26     9    28    1
    27     9    29    1
    28    10    13    2
    29    10    14    1
    30    11    15    2
    31    12    13    1
    32    12    30    1
    33    12    31    1
    34    13    32    1
    35    14    33    1
    36    14    34    1
    37    14    35    1
    38    15    36    1
    39    15    37    1
