@<TRIPOS>MOLECULE
IMPHY005940
 55 55 0 0 0
SMALL
GASTEIGER

@<TRIPOS>ATOM
      1 O           2.4384    0.6918    0.0000 O.3     1  UNL1       -0.3848
      2 C           5.9043    1.2990    0.0000 C.3     1  UNL1       -0.0202
      3 C           6.4043    2.1651    0.0000 C.3     1  UNL1       -0.0404
      4 C           6.4043    0.4330    0.0000 C.3     1  UNL1       -0.0428
      5 C           3.4043    0.4330    0.0000 C.3     1  UNL1        0.0816
      6 C           4.9043    1.2990    0.0000 C.2     1  UNL1       -0.0819
      7 C           7.4043    0.4330    0.0000 C.3     1  UNL1       -0.0315
      8 C           2.9043   -0.4330    0.0000 C.3     1  UNL1       -0.0172
      9 C           4.4043    0.4330    0.0000 C.2     1  UNL1       -0.0568
     10 C           5.9043    3.0311    0.0000 C.3     1  UNL1       -0.0621
     11 C           7.4043    2.1651    0.0000 C.3     1  UNL1       -0.0621
     12 C           7.9043   -0.4330    0.0000 C.2     1  UNL1       -0.0765
     13 C           3.4043   -1.2990    0.0000 C.3     1  UNL1       -0.0316
     14 C           3.1455    1.3989    0.0000 C.3     1  UNL1       -0.0324
     15 C           7.4043   -1.2990    0.0000 C.2     1  UNL1       -0.0847
     16 C           6.4043   -1.2990    0.0000 C.3     1  UNL1       -0.0308
     17 C           5.9043   -2.1651    0.0000 C.3     1  UNL1       -0.0286
     18 C           4.4043   -1.2990    0.0000 C.2     1  UNL1       -0.0849
     19 C           4.9043   -2.1651    0.0000 C.2     1  UNL1       -0.0762
     20 C           8.9043   -0.4330    0.0000 C.3     1  UNL1       -0.0438
     21 C           4.4043   -3.0311    0.0000 C.3     1  UNL1       -0.0438
     22 H           6.5243    1.2990    0.0000 H       1  UNL1        0.0346
     23 H           6.7143    2.7020    0.0000 H       1  UNL1        0.0301
     24 H           5.8217    0.2210    0.0000 H       1  UNL1        0.0274
     25 H           6.5120   -0.1776    0.0000 H       1  UNL1        0.0274
     26 H           4.5943    1.8360    0.0000 H       1  UNL1        0.0573
     27 H           7.9869    0.6451    0.0000 H       1  UNL1        0.0310
     28 H           7.2967    1.0436    0.0000 H       1  UNL1        0.0310
     29 H           2.4294   -0.0345    0.0000 H       1  UNL1        0.0299
     30 H           2.4294   -0.8315    0.0000 H       1  UNL1        0.0299
     31 H           4.7143   -0.1039    0.0000 H       1  UNL1        0.0597
     32 H           7.4043    1.5451    0.0000 H       1  UNL1        0.0233
     33 H           8.0243    2.1651    0.0000 H       1  UNL1        0.0233
     34 H           7.4043    2.7851    0.0000 H       1  UNL1        0.0233
     35 H           6.4413    3.3411    0.0000 H       1  UNL1        0.0233
     36 H           5.5943    3.5680    0.0000 H       1  UNL1        0.0233
     37 H           5.3674    2.7211    0.0000 H       1  UNL1        0.0233
     38 H           2.8217   -1.5111    0.0000 H       1  UNL1        0.0308
     39 H           3.5120   -1.9096    0.0000 H       1  UNL1        0.0308
     40 H           3.7444    1.5594    0.0000 H       1  UNL1        0.0260
     41 H           2.9851    1.9978    0.0000 H       1  UNL1        0.0260
     42 H           2.5466    1.2385    0.0000 H       1  UNL1        0.0260
     43 H           7.7143   -1.8360    0.0000 H       1  UNL1        0.0572
     44 H           6.5120   -0.6885    0.0000 H       1  UNL1        0.0310
     45 H           5.8217   -1.0870    0.0000 H       1  UNL1        0.0310
     46 H           5.7967   -2.7756    0.0000 H       1  UNL1        0.0313
     47 H           6.4869   -2.3771    0.0000 H       1  UNL1        0.0313
     48 H           4.7143   -0.7621    0.0000 H       1  UNL1        0.0572
     49 H           8.9043   -1.0530    0.0000 H       1  UNL1        0.0274
     50 H           9.5243   -0.4330    0.0000 H       1  UNL1        0.0274
     51 H           8.9043    0.1870    0.0000 H       1  UNL1        0.0274
     52 H           2.0000    0.2534    0.0000 H       1  UNL1        0.2106
     53 H           3.8674   -2.7211    0.0000 H       1  UNL1        0.0274
     54 H           4.0943   -3.5680    0.0000 H       1  UNL1        0.0274
     55 H           4.9413   -3.3411    0.0000 H       1  UNL1        0.0274
@<TRIPOS>BOND
     1     1     5    1
     2     1    52    1
     3     2     3    1
     4     2     4    1
     5     2     6    1
     6     2    22    1
     7     3    10    1
     8     3    11    1
     9     3    23    1
    10     4     7    1
    11     4    24    1
    12     4    25    1
    13     5     8    1
    14     5     9    1
    15     5    14    1
    16     6     9    2
    17     6    26    1
    18     7    12    1
    19     7    27    1
    20     7    28    1
    21     8    13    1
    22     8    29    1
    23     8    30    1
    24     9    31    1
    25    10    35    1
    26    10    36    1
    27    10    37    1
    28    11    32    1
    29    11    33    1
    30    11    34    1
    31    12    15    2
    32    12    20    1
    33    13    18    1
    34    13    38    1
    35    13    39    1
    36    14    40    1
    37    14    41    1
    38    14    42    1
    39    15    16    1
    40    15    43    1
    41    16    17    1
    42    16    44    1
    43    16    45    1
    44    17    19    1
    45    17    46    1
    46    17    47    1
    47    18    19    2
    48    18    48    1
    49    19    21    1
    50    20    49    1
    51    20    50    1
    52    20    51    1
    53    21    53    1
    54    21    54    1
    55    21    55    1
