@<TRIPOS>MOLECULE
IMPHY016926
 14 15 0 0 0
SMALL
GASTEIGER
****
Copyright by the U.S. Sec. Commerce on behalf of U.S.A. All rights reserved.
@<TRIPOS>ATOM
      1 C           1.9878    0.8448    0.0000 C.ar    1  UNL1        0.0000
      2 C           1.4908    0.0000    0.0000 C.ar    1  UNL1        0.0000
      3 C           1.4908    1.7393    0.0000 C.ar    1  UNL1        0.0000
      4 C           2.9816    0.8448    0.0000 C.ar    1  UNL1        0.0002
      5 C           0.4969    0.0000    0.0000 C.ar    1  UNL1        0.0000
      6 C           0.4969    1.7393    0.0000 C.ar    1  UNL1        0.0000
      7 C           0.0000    0.8448    0.0000 C.ar    1  UNL1        0.0000
      8 C           4.9694    0.8448    0.0000 C.ar    1  UNL1        0.1387
      9 C           4.4724    0.0000    0.0000 C.ar    1  UNL1        0.0369
     10 C           4.4724    1.7393    0.0000 C.ar    1  UNL1        0.0369
     11 O           5.9633    0.8448    0.0000 O.3     1  UNL1       -0.4714
     12 C           3.4786    0.0000    0.0000 C.ar    1  UNL1        0.0031
     13 C           3.4786    1.7393    0.0000 C.ar    1  UNL1        0.0031
     14 C           6.4602    1.7393    0.0000 C.3     1  UNL1        0.2525
@<TRIPOS>BOND
     1     1     2   ar
     2     1     4    1
     3     2     5   ar
     4     3     1   ar
     5     4    13   ar
     6     5     7   ar
     7     6     3   ar
     8     7     6   ar
     9     8     9   ar
    10     8    11    1
    11     9    12   ar
    12    10     8   ar
    13    11    14    1
    14    12     4   ar
    15    13    10   ar
