@<TRIPOS>MOLECULE
IMPHY004901
 95 100 0 0 0
SMALL
GASTEIGER

@<TRIPOS>ATOM
      1 O          12.9292   -0.8100    0.0000 O.3     1  UNL1       -0.3399
      2 O          13.7953    1.6900    0.0000 O.3     1  UNL1       -0.3611
      3 O          11.1972   -0.8100    0.0000 O.3     1  UNL1       -0.3394
      4 O          11.1972    0.1900    0.0000 O.3     1  UNL1       -0.3865
      5 O          11.1972    2.1900    0.0000 O.3     1  UNL1       -0.3865
      6 O          12.9292   -2.8100    0.0000 O.3     1  UNL1       -0.3841
      7 O          11.1972   -3.8100    0.0000 O.3     1  UNL1       -0.3864
      8 O           9.4651   -2.8100    0.0000 O.3     1  UNL1       -0.3864
      9 O          12.0632    3.6900    0.0000 O.3     1  UNL1       -0.3924
     10 O           8.5991   -1.3100    0.0000 O.3     1  UNL1       -0.4589
     11 O          15.5273    1.6900    0.0000 O.3     1  UNL1       -0.5056
     12 O          17.2873   -1.3447    0.0000 O.2     1  UNL1       -0.4545
     13 O          17.2757    1.7246    0.0000 O.2     1  UNL1       -0.2869
     14 O           7.7331    0.1900    0.0000 O.2     1  UNL1       -0.2456
     15 O          21.6497   -2.8442    0.0000 O.3     1  UNL1       -0.5068
     16 O           4.2690   -3.8100    0.0000 O.3     1  UNL1       -0.4914
     17 O           2.5369   -2.8100    0.0000 O.3     1  UNL1       -0.5033
     18 C          12.9292    0.1900    0.0000 C.3     1  UNL1        0.1203
     19 C          12.0632    0.6900    0.0000 C.3     1  UNL1        0.1124
     20 C          13.7953    0.6900    0.0000 C.3     1  UNL1        0.1165
     21 C          12.0632    1.6900    0.0000 C.3     1  UNL1        0.1118
     22 C          12.9292    2.1900    0.0000 C.3     1  UNL1        0.1108
     23 C          12.0632   -1.3100    0.0000 C.3     1  UNL1        0.1885
     24 C          12.0632   -2.3100    0.0000 C.3     1  UNL1        0.1341
     25 C          11.1972   -2.8100    0.0000 C.3     1  UNL1        0.1141
     26 C          10.3312   -2.3100    0.0000 C.3     1  UNL1        0.1129
     27 C          10.3312   -1.3100    0.0000 C.3     1  UNL1        0.1240
     28 C          14.6613    0.1900    0.0000 C.ar    1  UNL1        0.0290
     29 C          12.9292    3.1900    0.0000 C.3     1  UNL1        0.0729
     30 C          14.6613   -0.8100    0.0000 C.ar    1  UNL1       -0.0377
     31 C           9.4651   -0.8100    0.0000 C.3     1  UNL1        0.1215
     32 C          15.5273    0.6900    0.0000 C.ar    1  UNL1        0.1372
     33 C          16.3933    0.1900    0.0000 C.ar    1  UNL1        0.1056
     34 C          15.5273   -1.3100    0.0000 C.ar    1  UNL1       -0.0151
     35 C          16.3933   -0.8100    0.0000 C.ar    1  UNL1        0.1430
     36 C          13.7953   -1.3100    0.0000 C.3     1  UNL1       -0.0391
     37 C          17.2873    0.7247    0.0000 C.ar    1  UNL1        0.1966
     38 C          18.1934    0.2108    0.0000 C.ar    1  UNL1        0.0288
     39 C          18.1934   -0.8308    0.0000 C.ar    1  UNL1        0.1392
     40 C           7.7331   -0.8100    0.0000 C.2     1  UNL1        0.3320
     41 C          19.0574   -1.3342    0.0000 C.ar    1  UNL1        0.0176
     42 C           6.8671   -1.3100    0.0000 C.2     1  UNL1        0.0231
     43 C          19.9254   -0.8375    0.0000 C.ar    1  UNL1       -0.0476
     44 C          19.0536   -2.3341    0.0000 C.ar    1  UNL1       -0.0476
     45 C           6.0010   -0.8100    0.0000 C.2     1  UNL1       -0.0477
     46 C          20.7895   -1.3408    0.0000 C.ar    1  UNL1       -0.0195
     47 C          19.9177   -2.8375    0.0000 C.ar    1  UNL1       -0.0195
     48 C          20.7856   -2.3408    0.0000 C.ar    1  UNL1        0.1169
     49 C           5.1350   -1.3100    0.0000 C.ar    1  UNL1       -0.0211
     50 C           5.1350   -2.3100    0.0000 C.ar    1  UNL1       -0.0092
     51 C           4.2690   -0.8100    0.0000 C.ar    1  UNL1       -0.0509
     52 C           4.2690   -2.8100    0.0000 C.ar    1  UNL1        0.1618
     53 C           3.4030   -1.3100    0.0000 C.ar    1  UNL1       -0.0160
     54 C           3.4030   -2.3100    0.0000 C.ar    1  UNL1        0.1585
     55 C           3.4030   -4.3100    0.0000 C.3     1  UNL1        0.0790
     56 H          12.3923   -0.1200    0.0000 H       1  UNL1        0.0653
     57 H          11.5263    1.0000    0.0000 H       1  UNL1        0.0647
     58 H          14.5314    1.1150    0.0000 H       1  UNL1        0.0675
     59 H          12.0632    2.3100    0.0000 H       1  UNL1        0.0647
     60 H          13.4662    2.5000    0.0000 H       1  UNL1        0.0646
     61 H          12.0632   -0.6900    0.0000 H       1  UNL1        0.0938
     62 H          12.0632   -2.9300    0.0000 H       1  UNL1        0.0671
     63 H          10.6603   -3.1200    0.0000 H       1  UNL1        0.0648
     64 H           9.7942   -2.0000    0.0000 H       1  UNL1        0.0647
     65 H          10.3312   -0.6900    0.0000 H       1  UNL1        0.0658
     66 H          13.5398    3.0823    0.0000 H       1  UNL1        0.0584
     67 H          13.1413    3.7726    0.0000 H       1  UNL1        0.0584
     68 H           9.8637   -0.3351    0.0000 H       1  UNL1        0.0725
     69 H           9.0666   -0.3351    0.0000 H       1  UNL1        0.0725
     70 H          10.6603    0.5000    0.0000 H       1  UNL1        0.2100
     71 H          10.6603    1.8800    0.0000 H       1  UNL1        0.2100
     72 H          13.4662   -2.5000    0.0000 H       1  UNL1        0.2101
     73 H          11.7341   -4.1200    0.0000 H       1  UNL1        0.2100
     74 H           9.4651   -3.4300    0.0000 H       1  UNL1        0.2100
     75 H          15.5273   -1.9300    0.0000 H       1  UNL1        0.0657
     76 H          13.4853   -0.7731    0.0000 H       1  UNL1        0.0278
     77 H          13.2583   -1.6200    0.0000 H       1  UNL1        0.0278
     78 H          14.1053   -1.8469    0.0000 H       1  UNL1        0.0278
     79 H          12.0632    4.3100    0.0000 H       1  UNL1        0.2095
     80 H          16.0643    2.0000    0.0000 H       1  UNL1        0.2922
     81 H          18.7291    0.5229    0.0000 H       1  UNL1        0.0693
     82 H           6.8671   -1.9300    0.0000 H       1  UNL1        0.0689
     83 H          19.9278   -0.2175    0.0000 H       1  UNL1        0.0626
     84 H          18.5155   -2.6421    0.0000 H       1  UNL1        0.0626
     85 H           6.0010   -0.1900    0.0000 H       1  UNL1        0.0626
     86 H          21.3276   -1.0329    0.0000 H       1  UNL1        0.0654
     87 H          19.9153   -3.4575    0.0000 H       1  UNL1        0.0654
     88 H           5.6720   -2.6200    0.0000 H       1  UNL1        0.0661
     89 H           4.2690   -0.1900    0.0000 H       1  UNL1        0.0625
     90 H          22.1878   -2.5362    0.0000 H       1  UNL1        0.2921
     91 H           2.8660   -1.0000    0.0000 H       1  UNL1        0.0655
     92 H           2.0000   -2.5000    0.0000 H       1  UNL1        0.2923
     93 H           3.0930   -3.7731    0.0000 H       1  UNL1        0.0660
     94 H           2.8660   -4.6200    0.0000 H       1  UNL1        0.0660
     95 H           3.7130   -4.8469    0.0000 H       1  UNL1        0.0660
@<TRIPOS>BOND
     1    18     1    1
     2    23     1    1
     3     2    20    1
     4     2    22    1
     5     3    23    1
     6     3    27    1
     7    19     4    1
     8     4    70    1
     9    21     5    1
    10     5    71    1
    11    24     6    1
    12     6    72    1
    13    25     7    1
    14     7    73    1
    15    26     8    1
    16     8    74    1
    17     9    29    1
    18     9    79    1
    19    10    31    1
    20    10    40    1
    21    11    32    1
    22    11    80    1
    23    12    35   ar
    24    12    39   ar
    25    13    37    2
    26    14    40    2
    27    15    48    1
    28    15    90    1
    29    16    52    1
    30    16    55    1
    31    17    54    1
    32    17    92    1
    33    18    19    1
    34    18    20    1
    35    18    56    1
    36    19    21    1
    37    19    57    1
    38    20    28    1
    39    20    58    1
    40    21    22    1
    41    21    59    1
    42    22    29    1
    43    22    60    1
    44    23    24    1
    45    23    61    1
    46    24    25    1
    47    24    62    1
    48    25    26    1
    49    25    63    1
    50    26    27    1
    51    26    64    1
    52    27    31    1
    53    27    65    1
    54    28    30   ar
    55    28    32   ar
    56    29    66    1
    57    29    67    1
    58    30    34   ar
    59    30    36    1
    60    31    68    1
    61    31    69    1
    62    32    33   ar
    63    33    35   ar
    64    33    37   ar
    65    34    35   ar
    66    34    75    1
    67    36    76    1
    68    36    77    1
    69    36    78    1
    70    37    38   ar
    71    38    39   ar
    72    38    81    1
    73    39    41    1
    74    40    42    1
    75    41    43   ar
    76    41    44   ar
    77    42    45    2
    78    42    82    1
    79    43    46   ar
    80    43    83    1
    81    44    47   ar
    82    44    84    1
    83    45    49    1
    84    45    85    1
    85    46    48   ar
    86    46    86    1
    87    47    48   ar
    88    47    87    1
    89    49    50   ar
    90    49    51   ar
    91    50    52   ar
    92    50    88    1
    93    51    53   ar
    94    51    89    1
    95    52    54   ar
    96    53    54   ar
    97    53    91    1
    98    55    93    1
    99    55    94    1
   100    55    95    1
