@<TRIPOS>MOLECULE
IMPHY012291
 25 24 0 0 0
SMALL
GASTEIGER

@<TRIPOS>ATOM
      1 O           6.3301   -1.2500    0.0000 O.2     1  UNL1       -0.2924
      2 C           5.4641    0.2500    0.0000 C.3     1  UNL1        0.0141
      3 C           4.5981   -0.2500    0.0000 C.3     1  UNL1       -0.0212
      4 C           6.3301   -0.2500    0.0000 C.2     1  UNL1        0.1587
      5 C           3.7320    0.2500    0.0000 C.2     1  UNL1       -0.0546
      6 C           7.1962    0.2500    0.0000 C.2     1  UNL1       -0.0151
      7 C           8.0622   -0.2500    0.0000 C.3     1  UNL1       -0.0370
      8 C           2.8660   -0.2500    0.0000 C.2     1  UNL1       -0.0662
      9 C           3.7320    1.2500    0.0000 C.2     1  UNL1       -0.0955
     10 C           7.1962    1.2500    0.0000 C.2     1  UNL1       -0.0925
     11 C           2.0000    0.2500    0.0000 C.2     1  UNL1       -0.0985
     12 H           5.8626    0.7249    0.0000 H       1  UNL1        0.0348
     13 H           5.0656    0.7249    0.0000 H       1  UNL1        0.0348
     14 H           4.1996   -0.7249    0.0000 H       1  UNL1        0.0317
     15 H           4.9966   -0.7249    0.0000 H       1  UNL1        0.0317
     16 H           7.7522   -0.7869    0.0000 H       1  UNL1        0.0278
     17 H           8.5991   -0.5600    0.0000 H       1  UNL1        0.0278
     18 H           8.3722    0.2869    0.0000 H       1  UNL1        0.0278
     19 H           2.8660   -0.8700    0.0000 H       1  UNL1        0.0614
     20 H           4.2690    1.5600    0.0000 H       1  UNL1        0.0537
     21 H           3.1951    1.5600    0.0000 H       1  UNL1        0.0537
     22 H           7.7331    1.5600    0.0000 H       1  UNL1        0.0538
     23 H           6.6592    1.5600    0.0000 H       1  UNL1        0.0538
     24 H           2.0000    0.8700    0.0000 H       1  UNL1        0.0535
     25 H           1.4631   -0.0600    0.0000 H       1  UNL1        0.0535
@<TRIPOS>BOND
     1     1     4    2
     2     2     3    1
     3     2     4    1
     4     2    12    1
     5     2    13    1
     6     3     5    1
     7     3    14    1
     8     3    15    1
     9     4     6    1
    10     5     8    1
    11     5     9    2
    12     6     7    1
    13     6    10    2
    14     7    16    1
    15     7    17    1
    16     7    18    1
    17     8    11    2
    18     8    19    1
    19     9    20    1
    20     9    21    1
    21    10    22    1
    22    10    23    1
    23    11    24    1
    24    11    25    1
