@<TRIPOS>MOLECULE
IMPHY013108
 52 51 0 0 0
SMALL
GASTEIGER

@<TRIPOS>ATOM
      1 O          12.3923   -3.2500    0.0000 O.3     1  UNL1       -0.3950
      2 C           3.7320    2.7500    0.0000 C.3     1  UNL1       -0.0441
      3 C           4.5981    3.2500    0.0000 C.3     1  UNL1       -0.0505
      4 C           5.4641    2.7500    0.0000 C.3     1  UNL1       -0.0525
      5 C           6.3301    3.2500    0.0000 C.3     1  UNL1       -0.0496
      6 C           2.8660    3.2500    0.0000 C.3     1  UNL1       -0.0533
      7 C           3.7320    1.7500    0.0000 C.3     1  UNL1       -0.0624
      8 C           7.1962    2.7500    0.0000 C.3     1  UNL1       -0.0348
      9 C           9.7942    0.2500    0.0000 C.3     1  UNL1       -0.0528
     10 C          10.6603   -0.2500    0.0000 C.3     1  UNL1       -0.0530
     11 C           9.7942    1.2500    0.0000 C.3     1  UNL1       -0.0496
     12 C          10.6603   -1.2500    0.0000 C.3     1  UNL1       -0.0510
     13 C           8.9282    1.7500    0.0000 C.3     1  UNL1       -0.0348
     14 C           2.0000    2.7500    0.0000 C.3     1  UNL1       -0.0650
     15 C           8.0622    3.2500    0.0000 C.2     1  UNL1       -0.0879
     16 C          11.5263   -1.7500    0.0000 C.3     1  UNL1       -0.0297
     17 C           8.9282    2.7500    0.0000 C.2     1  UNL1       -0.0879
     18 C          11.5263   -2.7500    0.0000 C.3     1  UNL1        0.0442
     19 H           4.2690    2.4400    0.0000 H       1  UNL1        0.0298
     20 H           4.9966    3.7250    0.0000 H       1  UNL1        0.0268
     21 H           4.1996    3.7250    0.0000 H       1  UNL1        0.0268
     22 H           5.0656    2.2750    0.0000 H       1  UNL1        0.0265
     23 H           5.8626    2.2750    0.0000 H       1  UNL1        0.0265
     24 H           6.7287    3.7250    0.0000 H       1  UNL1        0.0268
     25 H           5.9316    3.7250    0.0000 H       1  UNL1        0.0268
     26 H           3.2646    3.7250    0.0000 H       1  UNL1        0.0265
     27 H           2.4675    3.7250    0.0000 H       1  UNL1        0.0265
     28 H           3.1120    1.7500    0.0000 H       1  UNL1        0.0232
     29 H           3.7320    1.1300    0.0000 H       1  UNL1        0.0232
     30 H           4.3520    1.7500    0.0000 H       1  UNL1        0.0232
     31 H           6.7976    2.2750    0.0000 H       1  UNL1        0.0307
     32 H           7.5947    2.2750    0.0000 H       1  UNL1        0.0307
     33 H           9.1836    0.3577    0.0000 H       1  UNL1        0.0265
     34 H           9.5822   -0.3326    0.0000 H       1  UNL1        0.0265
     35 H          11.2708   -0.3577    0.0000 H       1  UNL1        0.0265
     36 H          10.8723    0.3326    0.0000 H       1  UNL1        0.0265
     37 H          10.4048    1.1423    0.0000 H       1  UNL1        0.0268
     38 H          10.0063    1.8326    0.0000 H       1  UNL1        0.0268
     39 H          10.0497   -1.1423    0.0000 H       1  UNL1        0.0266
     40 H          10.4482   -1.8326    0.0000 H       1  UNL1        0.0266
     41 H           8.3176    1.8577    0.0000 H       1  UNL1        0.0307
     42 H           8.7162    1.1674    0.0000 H       1  UNL1        0.0307
     43 H           1.6900    3.2869    0.0000 H       1  UNL1        0.0230
     44 H           1.4631    2.4400    0.0000 H       1  UNL1        0.0230
     45 H           2.3100    2.2131    0.0000 H       1  UNL1        0.0230
     46 H           8.0622    3.8700    0.0000 H       1  UNL1        0.0569
     47 H          12.1369   -1.8577    0.0000 H       1  UNL1        0.0287
     48 H          11.7383   -1.1674    0.0000 H       1  UNL1        0.0287
     49 H           9.4651    3.0600    0.0000 H       1  UNL1        0.0569
     50 H          10.9157   -2.6423    0.0000 H       1  UNL1        0.0557
     51 H          11.3142   -3.3326    0.0000 H       1  UNL1        0.0557
     52 H          12.3923   -3.8700    0.0000 H       1  UNL1        0.2094
@<TRIPOS>BOND
     1     1    18    1
     2     1    52    1
     3     2     3    1
     4     2     6    1
     5     2     7    1
     6     2    19    1
     7     3     4    1
     8     3    20    1
     9     3    21    1
    10     4     5    1
    11     4    22    1
    12     4    23    1
    13     5     8    1
    14     5    24    1
    15     5    25    1
    16     6    14    1
    17     6    26    1
    18     6    27    1
    19     7    28    1
    20     7    29    1
    21     7    30    1
    22     8    15    1
    23     8    31    1
    24     8    32    1
    25     9    10    1
    26     9    11    1
    27     9    33    1
    28     9    34    1
    29    10    12    1
    30    10    35    1
    31    10    36    1
    32    11    13    1
    33    11    37    1
    34    11    38    1
    35    12    16    1
    36    12    39    1
    37    12    40    1
    38    13    17    1
    39    13    41    1
    40    13    42    1
    41    14    43    1
    42    14    44    1
    43    14    45    1
    44    15    17    2
    45    15    46    1
    46    16    18    1
    47    16    47    1
    48    16    48    1
    49    17    49    1
    50    18    50    1
    51    18    51    1
