@<TRIPOS>MOLECULE
IMPHY000911
 73 77 0 0 0
SMALL
GASTEIGER

@<TRIPOS>ATOM
      1 O           8.1101   -2.7787    0.0000 O.3     1  UNL1       -0.3366
      2 O           7.2441   -0.2787    0.0000 O.3     1  UNL1       -0.3313
      3 O           6.3781   -2.7787    0.0000 O.3     1  UNL1       -0.3431
      4 O           6.3781   -1.7787    0.0000 O.3     1  UNL1       -0.4606
      5 O           9.8422   -1.7787    0.0000 O.3     1  UNL1       -0.3863
      6 O           9.8422    0.2213    0.0000 O.3     1  UNL1       -0.3865
      7 O           8.1101   -4.7787    0.0000 O.3     1  UNL1       -0.3841
      8 O           6.3781   -5.7787    0.0000 O.3     1  UNL1       -0.3864
      9 O           4.6460   -4.7787    0.0000 O.3     1  UNL1       -0.3866
     10 O           8.9761    1.7213    0.0000 O.3     1  UNL1       -0.3924
     11 O           4.6038    1.2733    0.0000 O.3     1  UNL1       -0.4828
     12 O           2.8383   -1.7514    0.0000 O.3     1  UNL1       -0.5058
     13 O           2.0000   -0.2167    0.0000 O.2     1  UNL1       -0.2917
     14 O           3.7552    5.7766    0.0000 O.3     1  UNL1       -0.5068
     15 C           8.1101   -1.7787    0.0000 C.3     1  UNL1        0.1519
     16 C           8.9761   -1.2787    0.0000 C.3     1  UNL1        0.1155
     17 C           8.9761   -0.2787    0.0000 C.3     1  UNL1        0.1120
     18 C           7.2441   -3.2787    0.0000 C.3     1  UNL1        0.1885
     19 C           7.2441   -1.2787    0.0000 C.3     1  UNL1        0.2312
     20 C           7.2441   -4.2787    0.0000 C.3     1  UNL1        0.1341
     21 C           8.1101    0.2213    0.0000 C.3     1  UNL1        0.1140
     22 C           6.3781   -4.7787    0.0000 C.3     1  UNL1        0.1140
     23 C           5.5120   -4.2787    0.0000 C.3     1  UNL1        0.1095
     24 C           5.5120   -3.2787    0.0000 C.3     1  UNL1        0.0873
     25 C           8.1101    1.2213    0.0000 C.3     1  UNL1        0.0731
     26 C           4.6460   -2.7787    0.0000 C.3     1  UNL1       -0.0361
     27 C           5.5120   -1.2787    0.0000 C.ar    1  UNL1        0.1310
     28 C           5.5080   -0.2370    0.0000 C.ar    1  UNL1        0.0229
     29 C           4.6080   -1.7960    0.0000 C.ar    1  UNL1        0.0226
     30 C           4.6000    0.2733    0.0000 C.ar    1  UNL1        0.1389
     31 C           3.7320   -0.2234    0.0000 C.ar    1  UNL1        0.1007
     32 C           3.7398    1.7766    0.0000 C.3     1  UNL1        0.1322
     33 C           3.7120   -1.2648    0.0000 C.ar    1  UNL1        0.1343
     34 C           2.8718    1.2800    0.0000 C.3     1  UNL1        0.0520
     35 C           2.8680    0.2800    0.0000 C.2     1  UNL1        0.1740
     36 C           3.7436    2.7766    0.0000 C.ar    1  UNL1       -0.0067
     37 C           4.6116    3.2733    0.0000 C.ar    1  UNL1       -0.0516
     38 C           2.8795    3.2800    0.0000 C.ar    1  UNL1       -0.0516
     39 C           4.6154    4.2733    0.0000 C.ar    1  UNL1       -0.0198
     40 C           2.8834    4.2800    0.0000 C.ar    1  UNL1       -0.0198
     41 C           3.7513    4.7766    0.0000 C.ar    1  UNL1        0.1169
     42 H           7.5732   -2.0887    0.0000 H       1  UNL1        0.0687
     43 H           8.9761   -1.8987    0.0000 H       1  UNL1        0.0648
     44 H           9.5131   -0.5887    0.0000 H       1  UNL1        0.0647
     45 H           7.2441   -2.6587    0.0000 H       1  UNL1        0.0938
     46 H           6.7072   -0.9687    0.0000 H       1  UNL1        0.1084
     47 H           7.2441   -4.8987    0.0000 H       1  UNL1        0.0671
     48 H           7.5732    0.5313    0.0000 H       1  UNL1        0.0647
     49 H           5.8411   -5.0887    0.0000 H       1  UNL1        0.0648
     50 H           4.9751   -3.9687    0.0000 H       1  UNL1        0.0646
     51 H           5.5120   -2.6587    0.0000 H       1  UNL1        0.0621
     52 H           7.8981    1.8039    0.0000 H       1  UNL1        0.0584
     53 H           7.4995    1.1137    0.0000 H       1  UNL1        0.0584
     54 H           4.9560   -2.2417    0.0000 H       1  UNL1        0.0255
     55 H           4.1091   -2.4687    0.0000 H       1  UNL1        0.0255
     56 H           4.3360   -3.3156    0.0000 H       1  UNL1        0.0255
     57 H          10.3791   -1.4687    0.0000 H       1  UNL1        0.2100
     58 H          10.3791   -0.0887    0.0000 H       1  UNL1        0.2100
     59 H           8.1101   -5.3987    0.0000 H       1  UNL1        0.2101
     60 H           5.8411   -6.0887    0.0000 H       1  UNL1        0.2100
     61 H           4.1091   -4.4687    0.0000 H       1  UNL1        0.2100
     62 H           8.9761    2.3413    0.0000 H       1  UNL1        0.2095
     63 H           6.0426    0.0771    0.0000 H       1  UNL1        0.0691
     64 H           4.6032   -2.4160    0.0000 H       1  UNL1        0.0691
     65 H           4.2779    2.0846    0.0000 H       1  UNL1        0.0789
     66 H           2.6620    1.8634    0.0000 H       1  UNL1        0.0385
     67 H           2.2608    1.1747    0.0000 H       1  UNL1        0.0385
     68 H           5.1473    2.9612    0.0000 H       1  UNL1        0.0623
     69 H           2.3414    2.9720    0.0000 H       1  UNL1        0.0623
     70 H           2.8288   -2.3713    0.0000 H       1  UNL1        0.2922
     71 H           5.1535    4.5812    0.0000 H       1  UNL1        0.0654
     72 H           2.3476    4.5920    0.0000 H       1  UNL1        0.0654
     73 H           3.2194    6.0887    0.0000 H       1  UNL1        0.2921
@<TRIPOS>BOND
     1    15     1    1
     2    18     1    1
     3     2    19    1
     4     2    21    1
     5     3    18    1
     6     3    24    1
     7    19     4    1
     8     4    27    1
     9    16     5    1
    10     5    57    1
    11    17     6    1
    12     6    58    1
    13    20     7    1
    14     7    59    1
    15    22     8    1
    16     8    60    1
    17    23     9    1
    18     9    61    1
    19    10    25    1
    20    10    62    1
    21    11    30    1
    22    11    32    1
    23    12    33    1
    24    12    70    1
    25    13    35    2
    26    14    41    1
    27    14    73    1
    28    15    16    1
    29    15    19    1
    30    15    42    1
    31    16    17    1
    32    16    43    1
    33    17    21    1
    34    17    44    1
    35    18    20    1
    36    18    45    1
    37    19    46    1
    38    20    22    1
    39    20    47    1
    40    21    25    1
    41    21    48    1
    42    22    23    1
    43    22    49    1
    44    23    24    1
    45    23    50    1
    46    24    26    1
    47    24    51    1
    48    25    52    1
    49    25    53    1
    50    26    54    1
    51    26    55    1
    52    26    56    1
    53    27    28   ar
    54    27    29   ar
    55    28    30   ar
    56    28    63    1
    57    29    33   ar
    58    29    64    1
    59    30    31   ar
    60    31    33   ar
    61    31    35    1
    62    32    34    1
    63    32    36    1
    64    32    65    1
    65    34    35    1
    66    34    66    1
    67    34    67    1
    68    36    37   ar
    69    36    38   ar
    70    37    39   ar
    71    37    68    1
    72    38    40   ar
    73    38    69    1
    74    39    41   ar
    75    39    71    1
    76    40    41   ar
    77    40    72    1
