@<TRIPOS>MOLECULE
IMPHY012503
 22 23 0 0 0
SMALL
GASTEIGER

@<TRIPOS>ATOM
      1 O           4.9889   -1.8829    0.0000 O.3     1  UNL1       -0.4147
      2 O           5.9674    1.8338    0.0000 O.2     1  UNL1       -0.2956
      3 N           4.6783   -0.9324    0.0000 N.ar    1  UNL1       -0.1891
      4 C           3.7320   -0.6276    0.0000 C.ar    1  UNL1        0.0880
      5 C           3.7320    0.3724    0.0000 C.ar    1  UNL1        0.0134
      6 C           4.6783    0.6771    0.0000 C.ar    1  UNL1        0.0428
      7 C           5.2619   -0.1276    0.0000 C.ar    1  UNL1        0.0554
      8 C           2.8660   -1.1276    0.0000 C.ar    1  UNL1       -0.0343
      9 C           2.8660    0.8724    0.0000 C.ar    1  UNL1       -0.0518
     10 C           2.0000   -0.6276    0.0000 C.ar    1  UNL1       -0.0597
     11 C           2.0000    0.3724    0.0000 C.ar    1  UNL1       -0.0611
     12 C           4.9889    1.6276    0.0000 C.2     1  UNL1        0.1523
     13 C           5.9674   -2.0891    0.0000 C.3     1  UNL1        0.1052
     14 H           5.8819   -0.1276    0.0000 H       1  UNL1        0.0851
     15 H           2.8660   -1.7476    0.0000 H       1  UNL1        0.0639
     16 H           2.8660    1.4924    0.0000 H       1  UNL1        0.0624
     17 H           1.4631   -0.9376    0.0000 H       1  UNL1        0.0618
     18 H           1.4631    0.6824    0.0000 H       1  UNL1        0.0618
     19 H           4.5749    2.0891    0.0000 H       1  UNL1        0.1082
     20 H           5.8396   -2.6958    0.0000 H       1  UNL1        0.0686
     21 H           6.5741   -2.2170    0.0000 H       1  UNL1        0.0686
     22 H           6.0953   -1.4824    0.0000 H       1  UNL1        0.0686
@<TRIPOS>BOND
     1     1     3    1
     2     1    13    1
     3     2    12    2
     4     3     4   ar
     5     3     7   ar
     6     4     5   ar
     7     4     8   ar
     8     5     6   ar
     9     5     9   ar
    10     6     7   ar
    11     6    12    1
    12     7    14    1
    13     8    10   ar
    14     8    15    1
    15     9    11   ar
    16     9    16    1
    17    10    11   ar
    18    10    17    1
    19    11    18    1
    20    12    19    1
    21    13    20    1
    22    13    21    1
    23    13    22    1
