@<TRIPOS>MOLECULE
IMPHY000998
 115 124 0 0 0
SMALL
GASTEIGER

@<TRIPOS>ATOM
      1 O           6.8740   -4.6200    0.0000 O.3     1  UNL1       -0.4570
      2 O           8.1415   -2.6653    0.0000 O.3     1  UNL1       -0.3733
      3 O           9.6205    4.3178    0.0000 O.3     1  UNL1       -0.3631
      4 O           8.8846   -3.3345    0.0000 O.3     1  UNL1       -0.4658
      5 O           8.6767   -4.3126    0.0000 O.2     1  UNL1       -0.2474
      6 O           8.2439    1.8249    0.0000 O.3     1  UNL1       -0.4947
      7 O           8.1611   -5.7790    0.0000 O.2     1  UNL1       -0.2512
      8 O           6.5925    0.5120    0.0000 O.3     1  UNL1       -0.4670
      9 O           5.3077    0.5569    0.0000 O.2     1  UNL1       -0.2494
     10 N           4.4475   -2.3914    0.0000 N.3     1  UNL1       -0.2939
     11 N           7.5270   -1.3908    0.0000 N.pl3   1  UNL1       -0.3252
     12 N           7.0566    4.9729    0.0000 N.3     1  UNL1       -0.2989
     13 N           4.6919    1.9090    0.0000 N.ar    1  UNL1       -0.3565
     14 C           5.9873   -1.8911    0.0000 C.3     1  UNL1        0.0369
     15 C           5.3618   -2.5857    0.0000 C.3     1  UNL1        0.0348
     16 C           6.9016   -2.0854    0.0000 C.3     1  UNL1        0.0772
     17 C           5.6507   -3.4746    0.0000 C.3     1  UNL1        0.0453
     18 C           7.1904   -2.9744    0.0000 C.3     1  UNL1        0.2195
     19 C           5.6022   -0.8554    0.0000 C.3     1  UNL1       -0.0272
     20 C           6.5650   -3.6690    0.0000 C.3     1  UNL1        0.1542
     21 C           6.3239   -0.3075    0.0000 C.ar    1  UNL1       -0.0162
     22 C           4.1587   -1.5024    0.0000 C.3     1  UNL1        0.0005
     23 C           5.9597   -4.4257    0.0000 C.3     1  UNL1       -0.0418
     24 C           7.2382   -0.5018    0.0000 C.ar    1  UNL1        0.0372
     25 C           5.0252   -4.1693    0.0000 C.2     1  UNL1       -0.0755
     26 C           3.8221   -3.0860    0.0000 C.3     1  UNL1        0.0175
     27 C           4.1109   -3.9749    0.0000 C.2     1  UNL1       -0.0733
     28 C           6.0350    0.5815    0.0000 C.ar    1  UNL1       -0.0481
     29 C           7.9335   -3.6435    0.0000 C.2     1  UNL1        0.3446
     30 C           8.4781   -1.0817    0.0000 C.3     1  UNL1        0.0011
     31 C           6.6605    1.2761    0.0000 C.ar    1  UNL1        0.0172
     32 C           7.8636    0.1928    0.0000 C.ar    1  UNL1        0.0017
     33 C           8.7255    3.8708    0.0000 C.3     1  UNL1        0.0936
     34 C           5.2906   -5.1688    0.0000 C.3     1  UNL1       -0.0643
     35 C           8.7855    4.8689    0.0000 C.3     1  UNL1        0.1086
     36 C           6.3515    2.2272    0.0000 C.3     1  UNL1        0.1361
     37 C           7.8310    3.4236    0.0000 C.3     1  UNL1        0.0025
     38 C           7.3147    2.5491    0.0000 C.3     1  UNL1       -0.0210
     39 C           7.5748    1.0818    0.0000 C.ar    1  UNL1        0.1265
     40 C           7.9511    5.4200    0.0000 C.3     1  UNL1        0.0305
     41 C           6.9966    3.9747    0.0000 C.3     1  UNL1        0.0043
     42 C           8.8456    5.8671    0.0000 C.3     1  UNL1       -0.0229
     43 C           5.4130    2.6155    0.0000 C.ar    1  UNL1        0.0418
     44 C           7.1830   -5.5711    0.0000 C.2     1  UNL1        0.3043
     45 C           5.9768    1.3000    0.0000 C.2     1  UNL1        0.3235
     46 C           6.0472    5.0848    0.0000 C.3     1  UNL1        0.0031
     47 C           4.9590    3.5239    0.0000 C.ar    1  UNL1       -0.0165
     48 C           5.2116    4.5076    0.0000 C.3     1  UNL1       -0.0126
     49 C           9.7400    6.3142    0.0000 C.3     1  UNL1       -0.0625
     50 C           6.5139   -6.3142    0.0000 C.3     1  UNL1        0.0332
     51 C           9.6278   -4.0036    0.0000 C.3     1  UNL1        0.0818
     52 C           3.9610    3.3711    0.0000 C.ar    1  UNL1        0.0032
     53 C           3.7963    2.3751    0.0000 C.ar    1  UNL1        0.0470
     54 C           9.2220    1.6170    0.0000 C.3     1  UNL1        0.0788
     55 C           3.1587    4.0509    0.0000 C.ar    1  UNL1       -0.0523
     56 C           2.8178    1.9898    0.0000 C.ar    1  UNL1       -0.0378
     57 C           7.7313    0.6720    0.0000 C.3     1  UNL1        0.0817
     58 C           2.1716    3.6884    0.0000 C.ar    1  UNL1       -0.0611
     59 C           2.0000    2.6509    0.0000 C.ar    1  UNL1       -0.0598
     60 H           5.0992   -1.7773    0.0000 H       1  UNL1        0.0482
     61 H           7.7330   -2.2621    0.0000 H       1  UNL1        0.0544
     62 H           6.1785   -0.6268    0.0000 H       1  UNL1        0.0287
     63 H           5.3610   -0.2843    0.0000 H       1  UNL1        0.0287
     64 H           7.1714   -3.7979    0.0000 H       1  UNL1        0.0779
     65 H           3.9255   -0.9279    0.0000 H       1  UNL1        0.0427
     66 H           3.5762   -1.7149    0.0000 H       1  UNL1        0.0427
     67 H           6.3414   -4.9143    0.0000 H       1  UNL1        0.0273
     68 H           6.5071   -4.1346    0.0000 H       1  UNL1        0.0273
     69 H           5.2168   -4.7589    0.0000 H       1  UNL1        0.0577
     70 H           3.4404   -2.5974    0.0000 H       1  UNL1        0.0470
     71 H           3.2747   -3.3770    0.0000 H       1  UNL1        0.0470
     72 H           3.6961   -4.4357    0.0000 H       1  UNL1        0.0582
     73 H           5.4286    0.7104    0.0000 H       1  UNL1        0.0625
     74 H           8.5563   -2.2046    0.0000 H       1  UNL1        0.2111
     75 H           8.6697   -1.6714    0.0000 H       1  UNL1        0.0428
     76 H           9.0677   -0.8902    0.0000 H       1  UNL1        0.0428
     77 H           8.2865   -0.4921    0.0000 H       1  UNL1        0.0428
     78 H           8.4701    0.0639    0.0000 H       1  UNL1        0.0673
     79 H           9.1056    3.1105    0.0000 H       1  UNL1        0.0629
     80 H           4.8298   -4.7540    0.0000 H       1  UNL1        0.0230
     81 H           4.8757   -5.6296    0.0000 H       1  UNL1        0.0230
     82 H           5.7513   -5.5837    0.0000 H       1  UNL1        0.0230
     83 H           8.2110    2.6633    0.0000 H       1  UNL1        0.0340
     84 H           7.3378    1.9295    0.0000 H       1  UNL1        0.0287
     85 H           7.9157    2.3969    0.0000 H       1  UNL1        0.0287
     86 H           8.3774    5.8702    0.0000 H       1  UNL1        0.0456
     87 H           7.5818    5.9180    0.0000 H       1  UNL1        0.0456
     88 H           6.3935    4.1188    0.0000 H       1  UNL1        0.0430
     89 H           6.7499    3.4059    0.0000 H       1  UNL1        0.0430
     90 H           8.6689    6.4614    0.0000 H       1  UNL1        0.0292
     91 H           8.2296    5.7963    0.0000 H       1  UNL1        0.0292
     92 H           6.2862    5.6569    0.0000 H       1  UNL1        0.0430
     93 H           5.5655    5.4751    0.0000 H       1  UNL1        0.0430
     94 H           5.0170    5.0963    0.0000 H       1  UNL1        0.0326
     95 H           4.5920    4.4866    0.0000 H       1  UNL1        0.0326
     96 H          10.0172    5.7597    0.0000 H       1  UNL1        0.0231
     97 H          10.2946    6.5914    0.0000 H       1  UNL1        0.0231
     98 H           9.4628    6.8688    0.0000 H       1  UNL1        0.0231
     99 H           4.3675    1.3806    0.0000 H       1  UNL1        0.1656
    100 H           6.0531   -5.8994    0.0000 H       1  UNL1        0.0342
    101 H           6.0990   -6.7750    0.0000 H       1  UNL1        0.0342
    102 H           6.9746   -6.7291    0.0000 H       1  UNL1        0.0342
    103 H           9.2129   -4.4643    0.0000 H       1  UNL1        0.0661
    104 H          10.0885   -4.4185    0.0000 H       1  UNL1        0.0661
    105 H          10.0426   -3.5428    0.0000 H       1  UNL1        0.0661
    106 H           9.0931    1.0106    0.0000 H       1  UNL1        0.0660
    107 H           9.8285    1.4881    0.0000 H       1  UNL1        0.0660
    108 H           9.3510    2.2235    0.0000 H       1  UNL1        0.0660
    109 H           3.2670    4.6614    0.0000 H       1  UNL1        0.0624
    110 H           2.7237    1.3770    0.0000 H       1  UNL1        0.0638
    111 H           7.8176    0.0581    0.0000 H       1  UNL1        0.0661
    112 H           8.3453    0.7583    0.0000 H       1  UNL1        0.0661
    113 H           7.6450    1.2860    0.0000 H       1  UNL1        0.0661
    114 H           1.6940    4.0837    0.0000 H       1  UNL1        0.0618
    115 H           1.4205    2.4304    0.0000 H       1  UNL1        0.0618
@<TRIPOS>BOND
     1    20     1    1
     2     1    44    1
     3    18     2    1
     4     2    74    1
     5     3    33    1
     6     3    35    1
     7     4    29    1
     8     4    51    1
     9     5    29    2
    10     6    39    1
    11     6    54    1
    12     7    44    2
    13     8    45    1
    14     8    57    1
    15     9    45    2
    16    10    15    1
    17    10    22    1
    18    10    26    1
    19    11    16    1
    20    11    24    1
    21    11    30    1
    22    12    40    1
    23    12    41    1
    24    12    46    1
    25    13    43   ar
    26    13    53   ar
    27    13    99    1
    28    14    15    1
    29    14    16    1
    30    14    19    1
    31    14    21    1
    32    15    17    1
    33    15    60    1
    34    16    18    1
    35    16    61    1
    36    17    20    1
    37    17    23    1
    38    17    25    1
    39    18    20    1
    40    18    29    1
    41    19    22    1
    42    19    62    1
    43    19    63    1
    44    20    64    1
    45    21    24   ar
    46    21    28   ar
    47    22    65    1
    48    22    66    1
    49    23    34    1
    50    23    67    1
    51    23    68    1
    52    24    32   ar
    53    25    27    2
    54    25    69    1
    55    26    27    1
    56    26    70    1
    57    26    71    1
    58    27    72    1
    59    28    31   ar
    60    28    73    1
    61    30    75    1
    62    30    76    1
    63    30    77    1
    64    31    36    1
    65    31    39   ar
    66    32    39   ar
    67    32    78    1
    68    33    35    1
    69    33    37    1
    70    33    79    1
    71    34    80    1
    72    34    81    1
    73    34    82    1
    74    35    40    1
    75    35    42    1
    76    36    38    1
    77    36    43    1
    78    36    45    1
    79    37    38    1
    80    37    41    1
    81    37    83    1
    82    38    84    1
    83    38    85    1
    84    40    86    1
    85    40    87    1
    86    41    88    1
    87    41    89    1
    88    42    49    1
    89    42    90    1
    90    42    91    1
    91    43    47   ar
    92    44    50    1
    93    46    48    1
    94    46    92    1
    95    46    93    1
    96    47    48    1
    97    47    52   ar
    98    48    94    1
    99    48    95    1
   100    49    96    1
   101    49    97    1
   102    49    98    1
   103    50   100    1
   104    50   101    1
   105    50   102    1
   106    51   103    1
   107    51   104    1
   108    51   105    1
   109    52    53   ar
   110    52    55   ar
   111    53    56   ar
   112    54   106    1
   113    54   107    1
   114    54   108    1
   115    55    58   ar
   116    55   109    1
   117    56    59   ar
   118    56   110    1
   119    57   111    1
   120    57   112    1
   121    57   113    1
   122    58    59   ar
   123    58   114    1
   124    59   115    1
