@<TRIPOS>MOLECULE
IMPHY005262
 43 47 0 0 0
SMALL
GASTEIGER

@<TRIPOS>ATOM
      1 O           2.5405   -0.5688    0.0000 O.3     1  UNL1       -0.5029
      2 O           4.0768    3.5096    0.0000 O.3     1  UNL1       -0.4526
      3 O           2.6249    2.6714    0.0000 O.3     1  UNL1       -0.4526
      4 O           2.5247   -2.6170    0.0000 O.3     1  UNL1       -0.4914
      5 N           6.9022   -1.0667    0.0000 N.3     1  UNL1       -0.2978
      6 C           6.0427   -0.5719    0.0000 C.3     1  UNL1        0.0403
      7 C           5.1767   -1.0719    0.0000 C.ar    1  UNL1       -0.0153
      8 C           6.0427    0.4281    0.0000 C.3     1  UNL1       -0.0072
      9 C           5.1928   -2.1134    0.0000 C.ar    1  UNL1       -0.0372
     10 C           4.3107   -0.5719    0.0000 C.ar    1  UNL1        0.0325
     11 C           6.9156   -2.0583    0.0000 C.3     1  UNL1        0.0032
     12 C           6.0699   -2.5762    0.0000 C.3     1  UNL1       -0.0144
     13 C           5.1767    0.9281    0.0000 C.ar    1  UNL1       -0.0341
     14 C           4.3107    0.4281    0.0000 C.ar    1  UNL1       -0.0070
     15 C           3.4007   -1.0787    0.0000 C.ar    1  UNL1        0.1666
     16 C           4.2947   -2.6412    0.0000 C.ar    1  UNL1       -0.0127
     17 C           7.7645   -0.5603    0.0000 C.3     1  UNL1       -0.0122
     18 C           5.1928    1.9696    0.0000 C.ar    1  UNL1       -0.0123
     19 C           3.3926   -2.1203    0.0000 C.ar    1  UNL1        0.1622
     20 C           3.4007    0.9350    0.0000 C.ar    1  UNL1       -0.0080
     21 C           4.2947    2.4974    0.0000 C.ar    1  UNL1        0.1665
     22 C           3.3926    1.9766    0.0000 C.ar    1  UNL1        0.1668
     23 C           3.0469    3.6170    0.0000 C.3     1  UNL1        0.2332
     24 C           2.5208   -3.6170    0.0000 C.3     1  UNL1        0.0790
     25 H           6.7786   -0.1464    0.0000 H       1  UNL1        0.0516
     26 H           6.6533    0.3204    0.0000 H       1  UNL1        0.0332
     27 H           6.2548    1.0107    0.0000 H       1  UNL1        0.0332
     28 H           7.1403   -2.6361    0.0000 H       1  UNL1        0.0430
     29 H           7.5242   -1.9399    0.0000 H       1  UNL1        0.0430
     30 H           5.6877   -3.0644    0.0000 H       1  UNL1        0.0326
     31 H           6.4824   -3.0390    0.0000 H       1  UNL1        0.0326
     32 H           4.2971   -3.2612    0.0000 H       1  UNL1        0.0658
     33 H           8.0784   -1.0949    0.0000 H       1  UNL1        0.0391
     34 H           8.2991   -0.2463    0.0000 H       1  UNL1        0.0391
     35 H           7.4505   -0.0256    0.0000 H       1  UNL1        0.0391
     36 H           5.7332    2.2734    0.0000 H       1  UNL1        0.0658
     37 H           2.8674    0.6188    0.0000 H       1  UNL1        0.0661
     38 H           2.0000   -0.8725    0.0000 H       1  UNL1        0.2923
     39 H           3.1756    4.2235    0.0000 H       1  UNL1        0.1166
     40 H           2.4573    3.8088    0.0000 H       1  UNL1        0.1166
     41 H           1.9008   -3.6146    0.0000 H       1  UNL1        0.0660
     42 H           2.5184   -4.2370    0.0000 H       1  UNL1        0.0660
     43 H           3.1408   -3.6194    0.0000 H       1  UNL1        0.0660
@<TRIPOS>BOND
     1     1    15    1
     2     1    38    1
     3     2    21    1
     4     2    23    1
     5     3    22    1
     6     3    23    1
     7     4    19    1
     8     4    24    1
     9     5     6    1
    10     5    11    1
    11     5    17    1
    12     6     7    1
    13     6     8    1
    14     6    25    1
    15     7     9   ar
    16     7    10   ar
    17     8    13    1
    18     8    26    1
    19     8    27    1
    20     9    12    1
    21     9    16   ar
    22    10    14    1
    23    10    15   ar
    24    11    12    1
    25    11    28    1
    26    11    29    1
    27    12    30    1
    28    12    31    1
    29    13    14   ar
    30    13    18   ar
    31    14    20   ar
    32    15    19   ar
    33    16    19   ar
    34    16    32    1
    35    17    33    1
    36    17    34    1
    37    17    35    1
    38    18    21   ar
    39    18    36    1
    40    20    22   ar
    41    20    37    1
    42    21    22   ar
    43    23    39    1
    44    23    40    1
    45    24    41    1
    46    24    42    1
    47    24    43    1
