@<TRIPOS>MOLECULE
IMPHY009284
 29 31 0 0 0
SMALL
GASTEIGER

@<TRIPOS>ATOM
      1 O           5.5047    2.4052    0.0000 O.2     1  UNL1       -0.2866
      2 O           2.6330   -1.4554    0.0000 O.2     1  UNL1       -0.4913
      3 O           2.0000    0.4927    0.0000 O.2     1  UNL1       -0.2840
      4 N           6.6897   -0.9184    0.0000 N.pl3   1  UNL1       -0.3195
      5 C           6.0047   -0.1336    0.0000 C.2     1  UNL1        0.0501
      6 C           6.3137    0.8174    0.0000 C.2     1  UNL1        0.0469
      7 C           5.0047   -0.1336    0.0000 C.2     1  UNL1        0.0113
      8 C           4.6957    0.8174    0.0000 C.2     1  UNL1        0.0351
      9 C           5.5047    1.4052    0.0000 C.2     1  UNL1        0.1959
     10 C           7.3291    1.0497    0.0000 C.2     1  UNL1       -0.0367
     11 C           4.3197   -0.9184    0.0000 C.2     1  UNL1       -0.0065
     12 C           3.6803    1.0497    0.0000 C.2     1  UNL1        0.0002
     13 C           8.0321    0.2810    0.0000 C.2     1  UNL1       -0.0443
     14 C           3.2992   -0.7096    0.0000 C.2     1  UNL1        0.1672
     15 C           7.7102   -0.7096    0.0000 C.2     1  UNL1       -0.0059
     16 C           2.9773    0.2810    0.0000 C.2     1  UNL1        0.2209
     17 C           7.6271    2.0043    0.0000 C.3     1  UNL1       -0.0389
     18 C           2.9456   -2.4052    0.0000 C.3     1  UNL1        0.0790
     19 H           4.5181   -1.5058    0.0000 H       1  UNL1        0.0662
     20 H           6.4913   -1.5058    0.0000 H       1  UNL1        0.1516
     21 H           3.4955    1.6415    0.0000 H       1  UNL1        0.0664
     22 H           8.6380    0.4122    0.0000 H       1  UNL1        0.0633
     23 H           8.1233   -1.1720    0.0000 H       1  UNL1        0.0781
     24 H           8.2190    1.8195    0.0000 H       1  UNL1        0.0278
     25 H           7.8119    2.5961    0.0000 H       1  UNL1        0.0278
     26 H           7.0353    2.1890    0.0000 H       1  UNL1        0.0278
     27 H           2.3567   -2.5991    0.0000 H       1  UNL1        0.0660
     28 H           3.1395   -2.9941    0.0000 H       1  UNL1        0.0660
     29 H           3.5346   -2.2114    0.0000 H       1  UNL1        0.0660
@<TRIPOS>BOND
     1     1     9    2
     2     2    14    1
     3     2    18    1
     4     3    16    2
     5     4     5    1
     6     4    15    1
     7     4    20    1
     8     5     6    1
     9     5     7    2
    10     6     9    1
    11     6    10    2
    12     7     8    1
    13     7    11    1
    14     8     9    1
    15     8    12    2
    16    10    13    1
    17    10    17    1
    18    11    14    2
    19    11    19    1
    20    12    16    1
    21    12    21    1
    22    13    15    2
    23    13    22    1
    24    14    16    1
    25    15    23    1
    26    17    24    1
    27    17    25    1
    28    17    26    1
    29    18    27    1
    30    18    28    1
    31    18    29    1
