@<TRIPOS>MOLECULE
IMPHY000508
 21 23 0 0 0
SMALL
GASTEIGER

@<TRIPOS>ATOM
      1 C           3.4517    1.9990    0.0000 C.ar    1  UNL1        0.1127
      2 C           2.5888    1.5002    0.0000 C.ar    1  UNL1        0.2076
      3 C           3.4517    3.0005    0.0000 C.ar    1  UNL1        0.1546
      4 C           4.3245    1.4923    0.0000 C.ar    1  UNL1        0.2047
      5 C           1.7219    2.0029    0.0000 C.ar    1  UNL1        0.1107
      6 O           2.5868    0.5007    0.0000 O.2     1  UNL1       -0.2861
      7 O           2.5848    3.5032    0.0000 O.2     1  UNL1       -0.4497
      8 C           4.3206    3.5032    0.0000 C.ar    1  UNL1        0.0747
      9 C           5.1934    1.9930    0.0000 C.ar    1  UNL1        0.0792
     10 O           4.3225    0.4928    0.0000 O.3     1  UNL1       -0.2862
     11 C           1.7219    3.0005    0.0000 C.ar    1  UNL1        0.1899
     12 C           0.8609    1.5002    0.0000 C.ar    1  UNL1        0.1449
     13 C           5.1934    2.9985    0.0000 C.ar    1  UNL1        0.1450
     14 C           0.8590    3.4952    0.0000 C.ar    1  UNL1        0.2302
     15 C           0.0020    1.9990    0.0000 C.ar    1  UNL1        0.0405
     16 O           0.8629    0.5007    0.0000 O.3     1  UNL1       -0.4712
     17 O           6.0603    3.4992    0.0000 O.3     1  UNL1       -0.4712
     18 C           0.0020    2.9965    0.0000 C.ar    1  UNL1        0.0484
     19 O           0.8570    4.4947    0.0000 O.3     1  UNL1       -0.2833
     20 C           0.0000    0.0000    0.0000 C.3     1  UNL1        0.2525
     21 C           6.9272    2.9985    0.0000 C.3     1  UNL1        0.2525
@<TRIPOS>BOND
     1     1     2   ar
     2     1     3   ar
     3     1     4   ar
     4     2     5   ar
     5     2     6    2
     6     3     7   ar
     7     3     8   ar
     8     4     9   ar
     9     4    10    1
    10     5    11   ar
    11     5    12   ar
    12     7    11   ar
    13     8    13   ar
    14     9    13   ar
    15    11    14   ar
    16    12    15   ar
    17    12    16    1
    18    13    17    1
    19    14    18   ar
    20    14    19    1
    21    15    18   ar
    22    16    20    1
    23    17    21    1
