@<TRIPOS>MOLECULE
IMPHY001513
 33 35 0 0 0
SMALL
GASTEIGER

@<TRIPOS>ATOM
      1 CL          9.0602    0.8608    0.0000 Cl      1  UNL1       -0.0759
      2 O           5.5301    1.8367    0.0000 O.2     1  UNL1       -0.2864
      3 O           5.5301   -2.1633    0.0000 O.2     1  UNL1       -0.2866
      4 O           3.7817    1.8713    0.0000 O.3     1  UNL1       -0.5060
      5 O           9.0602   -1.1875    0.0000 O.3     1  UNL1       -0.4935
      6 O           7.2785    1.8713    0.0000 O.3     1  UNL1       -0.5044
      7 C           4.6641   -0.6633    0.0000 C.ar    1  UNL1        0.0368
      8 C           4.6641    0.3367    0.0000 C.ar    1  UNL1        0.0745
      9 C           6.3961    0.3367    0.0000 C.ar    1  UNL1        0.0762
     10 C           6.3961   -0.6633    0.0000 C.ar    1  UNL1        0.0401
     11 C           5.5301    0.8367    0.0000 C.2     1  UNL1        0.2016
     12 C           5.5301   -1.1633    0.0000 C.2     1  UNL1        0.1949
     13 C           3.7702   -1.1980    0.0000 C.ar    1  UNL1       -0.0471
     14 C           3.7702    0.8713    0.0000 C.ar    1  UNL1        0.1286
     15 C           7.2901    0.8713    0.0000 C.ar    1  UNL1        0.1501
     16 C           7.2901   -1.1980    0.0000 C.ar    1  UNL1       -0.0067
     17 C           2.8641   -0.6841    0.0000 C.ar    1  UNL1       -0.0463
     18 C           2.8641    0.3575    0.0000 C.ar    1  UNL1       -0.0165
     19 C           8.1962   -0.6841    0.0000 C.ar    1  UNL1        0.1426
     20 C           8.1962    0.3575    0.0000 C.ar    1  UNL1        0.1245
     21 C           2.0000   -1.1875    0.0000 C.3     1  UNL1       -0.0396
     22 C           9.0564   -2.1875    0.0000 C.3     1  UNL1        0.0789
     23 H           3.7773   -1.8179    0.0000 H       1  UNL1        0.0627
     24 H           7.2829   -1.8179    0.0000 H       1  UNL1        0.0662
     25 H           2.3284    0.6696    0.0000 H       1  UNL1        0.0657
     26 H           1.6879   -0.6517    0.0000 H       1  UNL1        0.0278
     27 H           1.4643   -1.4995    0.0000 H       1  UNL1        0.0278
     28 H           2.3121   -1.7232    0.0000 H       1  UNL1        0.0278
     29 H           3.2484    2.1875    0.0000 H       1  UNL1        0.2922
     30 H           7.8118    2.1875    0.0000 H       1  UNL1        0.2922
     31 H           8.4364   -2.1851    0.0000 H       1  UNL1        0.0660
     32 H           9.0540   -2.8075    0.0000 H       1  UNL1        0.0660
     33 H           9.6764   -2.1898    0.0000 H       1  UNL1        0.0660
@<TRIPOS>BOND
     1     1    20    1
     2     2    11    2
     3     3    12    2
     4     4    14    1
     5     4    29    1
     6     5    19    1
     7     5    22    1
     8     6    15    1
     9     6    30    1
    10     7     8   ar
    11     7    12    1
    12     7    13   ar
    13     8    11    1
    14     8    14   ar
    15     9    10   ar
    16     9    11    1
    17     9    15   ar
    18    10    12    1
    19    10    16   ar
    20    13    17   ar
    21    13    23    1
    22    14    18   ar
    23    15    20   ar
    24    16    19   ar
    25    16    24    1
    26    17    18   ar
    27    17    21    1
    28    18    25    1
    29    19    20   ar
    30    21    26    1
    31    21    27    1
    32    21    28    1
    33    22    31    1
    34    22    32    1
    35    22    33    1
