@<TRIPOS>MOLECULE
IMPHY009214
 57 59 0 0 0
SMALL
GASTEIGER

@<TRIPOS>ATOM
      1 O          10.5963    1.2747    0.0000 O.3     1  UNL1       -0.4579
      2 O           7.1412    1.2249    0.0000 O.3     1  UNL1       -0.3944
      3 O          10.9207   -0.3563    0.0000 O.2     1  UNL1       -0.2502
      4 O           4.3153   -2.5027    0.0000 O.3     1  UNL1       -0.3907
      5 O           2.5281   -0.5518    0.0000 O.3     1  UNL1       -0.3910
      6 C           9.2897   -0.0319    0.0000 C.3     1  UNL1        0.0750
      7 C           8.3658    0.3508    0.0000 C.3     1  UNL1       -0.0171
      8 C           7.7222   -0.4068    0.0000 C.3     1  UNL1        0.0006
      9 C           8.2423   -1.2539    0.0000 C.3     1  UNL1       -0.0348
     10 C           9.2092   -1.0227    0.0000 C.3     1  UNL1       -0.0337
     11 C           9.4135    1.2234    0.0000 C.3     1  UNL1        0.0030
     12 C          10.2136    2.1986    0.0000 C.3     1  UNL1        0.1118
     13 C           7.9832    1.2747    0.0000 C.3     1  UNL1       -0.0485
     14 C           6.8705   -0.9308    0.0000 C.3     1  UNL1       -0.0410
     15 C          10.2136    0.3508    0.0000 C.2     1  UNL1        0.3143
     16 C           9.2897    2.5812    0.0000 C.3     1  UNL1       -0.0130
     17 C           6.9607    0.2413    0.0000 C.3     1  UNL1        0.0504
     18 C           8.3658    2.1986    0.0000 C.3     1  UNL1       -0.0492
     19 C           7.8597   -2.1778    0.0000 C.3     1  UNL1       -0.0618
     20 C          10.5963    3.1224    0.0000 C.3     1  UNL1       -0.0248
     21 C           5.9908   -0.4551    0.0000 C.3     1  UNL1       -0.0289
     22 C           5.1391   -0.9791    0.0000 C.2     1  UNL1       -0.0463
     23 C           5.1670   -1.9787    0.0000 C.3     1  UNL1        0.0654
     24 C           4.2594   -0.5035    0.0000 C.2     1  UNL1       -0.0576
     25 C           3.4077   -1.0274    0.0000 C.3     1  UNL1        0.0627
     26 H           7.5805    0.6761    0.0000 H       1  UNL1        0.0317
     27 H           7.6243   -1.3028    0.0000 H       1  UNL1        0.0305
     28 H           9.2892   -1.6375    0.0000 H       1  UNL1        0.0279
     29 H           9.8290   -1.0077    0.0000 H       1  UNL1        0.0279
     30 H           9.0861    1.7499    0.0000 H       1  UNL1        0.0314
     31 H           9.9863    0.9861    0.0000 H       1  UNL1        0.0314
     32 H           7.4913    1.6521    0.0000 H       1  UNL1        0.0268
     33 H           7.4913    0.8972    0.0000 H       1  UNL1        0.0268
     34 H           6.4854   -1.4166    0.0000 H       1  UNL1        0.0275
     35 H           7.2821   -1.3944    0.0000 H       1  UNL1        0.0275
     36 H           9.6672    3.0731    0.0000 H       1  UNL1        0.0304
     37 H           8.9123    3.0731    0.0000 H       1  UNL1        0.0304
     38 H           6.3796    0.4575    0.0000 H       1  UNL1        0.0563
     39 H           6.6469   -0.2934    0.0000 H       1  UNL1        0.0563
     40 H           8.2849    2.8132    0.0000 H       1  UNL1        0.0267
     41 H           7.7512    2.2795    0.0000 H       1  UNL1        0.0267
     42 H           7.2868   -1.9405    0.0000 H       1  UNL1        0.0233
     43 H           7.6224   -2.7506    0.0000 H       1  UNL1        0.0233
     44 H           8.4325   -2.4151    0.0000 H       1  UNL1        0.0233
     45 H          11.1691    2.8852    0.0000 H       1  UNL1        0.0268
     46 H          10.8335    3.6952    0.0000 H       1  UNL1        0.0268
     47 H          10.0235    3.3597    0.0000 H       1  UNL1        0.0268
     48 H           6.3759    0.0308    0.0000 H       1  UNL1        0.0311
     49 H           5.5792    0.0085    0.0000 H       1  UNL1        0.0311
     50 H           6.6691    1.6268    0.0000 H       1  UNL1        0.2094
     51 H           5.3952   -2.5552    0.0000 H       1  UNL1        0.0604
     52 H           5.7743   -1.8540    0.0000 H       1  UNL1        0.0604
     53 H           4.2422    0.1163    0.0000 H       1  UNL1        0.0595
     54 H           3.0226   -1.5133    0.0000 H       1  UNL1        0.0601
     55 H           3.8193   -1.4911    0.0000 H       1  UNL1        0.0601
     56 H           4.3326   -3.1224    0.0000 H       1  UNL1        0.2098
     57 H           2.0000   -0.8767    0.0000 H       1  UNL1        0.2098
@<TRIPOS>BOND
     1     1    12    1
     2     1    15    1
     3     2    17    1
     4     2    50    1
     5     3    15    2
     6     4    23    1
     7     4    56    1
     8     5    25    1
     9     5    57    1
    10     6     7    1
    11     6    10    1
    12     6    11    1
    13     6    15    1
    14     7     8    1
    15     7    13    1
    16     7    26    1
    17     8     9    1
    18     8    14    1
    19     8    17    1
    20     9    10    1
    21     9    19    1
    22     9    27    1
    23    10    28    1
    24    10    29    1
    25    11    12    1
    26    11    30    1
    27    11    31    1
    28    12    16    1
    29    12    20    1
    30    13    18    1
    31    13    32    1
    32    13    33    1
    33    14    21    1
    34    14    34    1
    35    14    35    1
    36    16    18    1
    37    16    36    1
    38    16    37    1
    39    17    38    1
    40    17    39    1
    41    18    40    1
    42    18    41    1
    43    19    42    1
    44    19    43    1
    45    19    44    1
    46    20    45    1
    47    20    46    1
    48    20    47    1
    49    21    22    1
    50    21    48    1
    51    21    49    1
    52    22    23    1
    53    22    24    2
    54    23    51    1
    55    23    52    1
    56    24    25    1
    57    24    53    1
    58    25    54    1
    59    25    55    1
