@<TRIPOS>MOLECULE
IMPHY008261
 128 138 0 0 0
SMALL
GASTEIGER

@<TRIPOS>ATOM
      1 O           9.2722   -0.7910    0.0000 O.3     1  UNL1       -0.4530
      2 O           8.8566   -1.6309    0.0000 O.3     1  UNL1       -0.4502
      3 O          11.5193    2.2581    0.0000 O.3     1  UNL1       -0.4808
      4 O           7.5058   -1.7192    0.0000 O.3     1  UNL1       -0.4501
      5 O           7.6046    1.0525    0.0000 O.3     1  UNL1       -0.4505
      6 O          12.1119    1.7146    0.0000 O.3     1  UNL1       -0.5030
      7 O          12.5079    4.7869    0.0000 O.3     1  UNL1       -0.3875
      8 O           8.2128    1.1345    0.0000 O.3     1  UNL1       -0.5062
      9 O          11.1219   -1.6360    0.0000 O.2     1  UNL1       -0.2449
     10 O           6.2641   -0.8882    0.0000 O.3     1  UNL1       -0.4573
     11 O           8.8538    4.5388    0.0000 O.3     1  UNL1       -0.5063
     12 O          13.6703   -1.2702    0.0000 O.3     1  UNL1       -0.5028
     13 O          13.6703    0.7298    0.0000 O.3     1  UNL1       -0.5009
     14 O           9.0411   -3.2518    0.0000 O.2     1  UNL1       -0.2449
     15 O          13.1309   -2.3230    0.0000 O.3     1  UNL1       -0.5028
     16 O           5.8968   -1.2132    0.0000 O.2     1  UNL1       -0.2449
     17 O          12.9333   -4.2553    0.0000 O.3     1  UNL1       -0.5009
     18 O          11.1710   -5.0720    0.0000 O.3     1  UNL1       -0.5032
     19 O           7.3026    2.7580    0.0000 O.2     1  UNL1       -0.2449
     20 O          15.6059    2.3890    0.0000 O.3     1  UNL1       -0.5032
     21 O          14.4715    5.6620    0.0000 O.3     1  UNL1       -0.5032
     22 O           5.7053   -2.7120    0.0000 O.2     1  UNL1       -0.2449
     23 O          15.9835    4.3530    0.0000 O.3     1  UNL1       -0.5009
     24 O           5.6332   -5.3616    0.0000 O.3     1  UNL1       -0.5028
     25 O           9.0553   -4.4560    0.0000 O.3     1  UNL1       -0.5032
     26 O           4.6731   -5.1051    0.0000 O.3     1  UNL1       -0.5028
     27 O           7.6080   -5.9055    0.0000 O.3     1  UNL1       -0.5009
     28 O           2.6902   -4.5916    0.0000 O.3     1  UNL1       -0.5009
     29 O           2.1586   -2.6136    0.0000 O.3     1  UNL1       -0.5032
     30 O           3.7052    3.0004    0.0000 O.3     1  UNL1       -0.5032
     31 O           4.3093   -0.4105    0.0000 O.3     1  UNL1       -0.5032
     32 O           3.0226    1.1205    0.0000 O.3     1  UNL1       -0.5009
     33 C          10.1783    0.7644    0.0000 C.3     1  UNL1        0.0612
     34 C           9.2722    0.2506    0.0000 C.3     1  UNL1        0.1548
     35 C           8.7553   -0.6219    0.0000 C.3     1  UNL1        0.1811
     36 C          11.0722    0.2298    0.0000 C.ar    1  UNL1        0.0237
     37 C           9.8472    1.7080    0.0000 C.ar    1  UNL1        0.0473
     38 C           7.7640   -0.7531    0.0000 C.3     1  UNL1        0.1834
     39 C          11.0722   -0.7702    0.0000 C.ar    1  UNL1        0.0779
     40 C          10.4988    2.4666    0.0000 C.ar    1  UNL1        0.1356
     41 C           7.2633    0.1125    0.0000 C.3     1  UNL1        0.1774
     42 C          10.1676    3.4102    0.0000 C.ar    1  UNL1        0.0387
     43 C          10.1783   -1.3049    0.0000 C.2     1  UNL1        0.3407
     44 C          11.9383   -1.2702    0.0000 C.ar    1  UNL1        0.0461
     45 C          10.8341    4.2107    0.0000 C.3     1  UNL1        0.0092
     46 C          11.9383    0.7298    0.0000 C.ar    1  UNL1        0.1668
     47 C          11.8592    4.0258    0.0000 C.3     1  UNL1        0.1004
     48 C          12.2041    3.0430    0.0000 C.3     1  UNL1        0.1514
     49 C           8.8644    1.8930    0.0000 C.ar    1  UNL1        0.1277
     50 C           9.1849    3.5952    0.0000 C.ar    1  UNL1        0.1271
     51 C          11.4504   -2.1592    0.0000 C.ar    1  UNL1        0.0458
     52 C          12.8043   -0.7702    0.0000 C.ar    1  UNL1        0.1708
     53 C          12.8043    0.2298    0.0000 C.ar    1  UNL1        0.2015
     54 C           6.2633    0.1118    0.0000 C.3     1  UNL1        0.1333
     55 C           8.5333    2.8366    0.0000 C.ar    1  UNL1        0.0221
     56 C           9.5366   -2.3832    0.0000 C.2     1  UNL1        0.3405
     57 C          10.5303   -2.5856    0.0000 C.ar    1  UNL1        0.0740
     58 C          13.1490    3.3705    0.0000 C.ar    1  UNL1        0.0023
     59 C          12.2160   -2.7267    0.0000 C.ar    1  UNL1        0.1708
     60 C           6.5401   -1.9787    0.0000 C.2     1  UNL1        0.3405
     61 C          10.4683   -3.5366    0.0000 C.ar    1  UNL1       -0.0017
     62 C          13.3378    4.3525    0.0000 C.ar    1  UNL1       -0.0095
     63 C          13.9050    2.7160    0.0000 C.ar    1  UNL1       -0.0095
     64 C          12.1190   -3.6748    0.0000 C.ar    1  UNL1        0.2012
     65 C          11.2544   -4.0755    0.0000 C.ar    1  UNL1        0.1628
     66 C           6.9613    1.8180    0.0000 C.2     1  UNL1        0.3399
     67 C           6.7997   -2.9445    0.0000 C.ar    1  UNL1        0.0740
     68 C          14.8498    3.0435    0.0000 C.ar    1  UNL1        0.1623
     69 C          14.2826    4.6800    0.0000 C.ar    1  UNL1        0.1623
     70 C           6.0931   -3.6521    0.0000 C.ar    1  UNL1        0.0458
     71 C           5.5740   -1.7207    0.0000 C.2     1  UNL1        0.3401
     72 C          15.0387    4.0255    0.0000 C.ar    1  UNL1        0.2006
     73 C           5.1270   -3.3940    0.0000 C.ar    1  UNL1        0.0458
     74 C           4.8674   -2.4282    0.0000 C.ar    1  UNL1        0.0740
     75 C           5.9766    1.6436    0.0000 C.ar    1  UNL1        0.0661
     76 C           7.8101   -3.1978    0.0000 C.ar    1  UNL1       -0.0017
     77 C           6.3479   -4.6621    0.0000 C.ar    1  UNL1        0.1708
     78 C           8.0882   -4.2016    0.0000 C.ar    1  UNL1        0.1628
     79 C           4.4024   -4.1424    0.0000 C.ar    1  UNL1        0.1708
     80 C           3.8654   -2.1440    0.0000 C.ar    1  UNL1       -0.0017
     81 C           7.3522   -4.9387    0.0000 C.ar    1  UNL1        0.2012
     82 C           5.6353    0.7037    0.0000 C.ar    1  UNL1       -0.0023
     83 C           5.3332    2.4092    0.0000 C.ar    1  UNL1       -0.0023
     84 C           3.3940   -3.8813    0.0000 C.ar    1  UNL1        0.2012
     85 C           3.1237   -2.8753    0.0000 C.ar    1  UNL1        0.1628
     86 C           4.3486    2.2348    0.0000 C.ar    1  UNL1        0.1628
     87 C           4.6506    0.5293    0.0000 C.ar    1  UNL1        0.1628
     88 C           4.0072    1.2949    0.0000 C.ar    1  UNL1        0.2006
     89 H          10.6586    1.1565    0.0000 H       1  UNL1        0.0438
     90 H           8.8380    0.6931    0.0000 H       1  UNL1        0.0782
     91 H           8.4136   -0.1045    0.0000 H       1  UNL1        0.0811
     92 H           8.1731   -1.2190    0.0000 H       1  UNL1        0.0812
     93 H           7.8809    0.1670    0.0000 H       1  UNL1        0.0808
     94 H          11.0469    4.7930    0.0000 H       1  UNL1        0.0342
     95 H          10.2968    4.5200    0.0000 H       1  UNL1        0.0342
     96 H          11.6505    4.6097    0.0000 H       1  UNL1        0.0637
     97 H          12.5509    2.5290    0.0000 H       1  UNL1        0.0811
     98 H           6.2629    0.7318    0.0000 H       1  UNL1        0.0736
     99 H           5.6433    0.1113    0.0000 H       1  UNL1        0.0736
    100 H           7.9240    2.9514    0.0000 H       1  UNL1        0.0691
    101 H          12.6945    1.9266    0.0000 H       1  UNL1        0.2923
    102 H          12.3003    5.3711    0.0000 H       1  UNL1        0.2100
    103 H           8.4181    0.5495    0.0000 H       1  UNL1        0.2921
    104 H           9.9107   -3.8076    0.0000 H       1  UNL1        0.0664
    105 H          12.8690    4.7583    0.0000 H       1  UNL1        0.0659
    106 H          13.7880    2.1071    0.0000 H       1  UNL1        0.0659
    107 H           8.2445    4.6535    0.0000 H       1  UNL1        0.2921
    108 H          14.2073   -0.9602    0.0000 H       1  UNL1        0.2923
    109 H          13.6703    1.3498    0.0000 H       1  UNL1        0.2924
    110 H          13.1978   -1.7066    0.0000 H       1  UNL1        0.2923
    111 H           8.2430   -2.7540    0.0000 H       1  UNL1        0.0664
    112 H          12.8740   -4.8725    0.0000 H       1  UNL1        0.2924
    113 H          10.6101   -5.3361    0.0000 H       1  UNL1        0.2923
    114 H           3.7114   -1.5434    0.0000 H       1  UNL1        0.0664
    115 H           6.0342    0.2290    0.0000 H       1  UNL1        0.0663
    116 H           5.5449    2.9920    0.0000 H       1  UNL1        0.0663
    117 H          16.1917    2.5920    0.0000 H       1  UNL1        0.2923
    118 H          14.0027    6.0678    0.0000 H       1  UNL1        0.2923
    119 H          16.1005    4.9619    0.0000 H       1  UNL1        0.2924
    120 H           5.7872   -5.9621    0.0000 H       1  UNL1        0.2923
    121 H           9.2186   -5.0541    0.0000 H       1  UNL1        0.2923
    122 H           4.2401   -5.5488    0.0000 H       1  UNL1        0.2923
    123 H           8.2064   -6.0678    0.0000 H       1  UNL1        0.2924
    124 H           2.0906   -4.4339    0.0000 H       1  UNL1        0.2924
    125 H           2.0000   -2.0142    0.0000 H       1  UNL1        0.2923
    126 H           3.9168    3.5832    0.0000 H       1  UNL1        0.2923
    127 H           3.6988   -0.5187    0.0000 H       1  UNL1        0.2923
    128 H           2.8110    0.5377    0.0000 H       1  UNL1        0.2924
@<TRIPOS>BOND
     1     1    34    1
     2     1    43    1
     3     2    35    1
     4     2    56    1
     5     3    40    1
     6     3    48    1
     7     4    38    1
     8     4    60    1
     9     5    41    1
    10     5    66    1
    11     6    46    1
    12     6   101    1
    13     7    47    1
    14     7   102    1
    15     8    49    1
    16     8   103    1
    17     9    43    2
    18    10    54    1
    19    10    71    1
    20    11    50    1
    21    11   107    1
    22    12    52    1
    23    12   108    1
    24    13    53    1
    25    13   109    1
    26    14    56    2
    27    15    59    1
    28    15   110    1
    29    16    60    2
    30    17    64    1
    31    17   112    1
    32    18    65    1
    33    18   113    1
    34    19    66    2
    35    20    68    1
    36    20   117    1
    37    21    69    1
    38    21   118    1
    39    22    71    2
    40    23    72    1
    41    23   119    1
    42    24    77    1
    43    24   120    1
    44    25    78    1
    45    25   121    1
    46    26    79    1
    47    26   122    1
    48    27    81    1
    49    27   123    1
    50    28    84    1
    51    28   124    1
    52    29    85    1
    53    29   125    1
    54    30    86    1
    55    30   126    1
    56    31    87    1
    57    31   127    1
    58    32    88    1
    59    32   128    1
    60    33    34    1
    61    33    36    1
    62    33    37    1
    63    33    89    1
    64    34    35    1
    65    34    90    1
    66    35    38    1
    67    35    91    1
    68    36    39   ar
    69    36    46   ar
    70    37    40   ar
    71    37    49   ar
    72    38    41    1
    73    38    92    1
    74    39    43    1
    75    39    44   ar
    76    40    42   ar
    77    41    54    1
    78    41    93    1
    79    42    45    1
    80    42    50   ar
    81    44    51    1
    82    44    52   ar
    83    45    47    1
    84    45    94    1
    85    45    95    1
    86    46    53   ar
    87    47    48    1
    88    47    96    1
    89    48    58    1
    90    48    97    1
    91    49    55   ar
    92    50    55   ar
    93    51    57   ar
    94    51    59   ar
    95    52    53   ar
    96    54    98    1
    97    54    99    1
    98    55   100    1
    99    56    57    1
   100    57    61   ar
   101    58    62   ar
   102    58    63   ar
   103    59    64   ar
   104    60    67    1
   105    61    65   ar
   106    61   104    1
   107    62    69   ar
   108    62   105    1
   109    63    68   ar
   110    63   106    1
   111    64    65   ar
   112    66    75    1
   113    67    70   ar
   114    67    76   ar
   115    68    72   ar
   116    69    72   ar
   117    70    73    1
   118    70    77   ar
   119    71    74    1
   120    73    74   ar
   121    73    79   ar
   122    74    80   ar
   123    75    82   ar
   124    75    83   ar
   125    76    78   ar
   126    76   111    1
   127    77    81   ar
   128    78    81   ar
   129    79    84   ar
   130    80    85   ar
   131    80   114    1
   132    82    87   ar
   133    82   115    1
   134    83    86   ar
   135    83   116    1
   136    84    85   ar
   137    86    88   ar
   138    87    88   ar
