@<TRIPOS>MOLECULE
IMPHY008955
 24 24 0 0 0
SMALL
GASTEIGER

@<TRIPOS>ATOM
      1 O           5.4641   -1.0000    0.0000 O.3     1  UNL1       -0.4613
      2 O           7.1962   -1.0000    0.0000 O.2     1  UNL1       -0.2508
      3 C           4.5981   -0.5000    0.0000 C.3     1  UNL1        0.1031
      4 C           4.5981    0.5000    0.0000 C.3     1  UNL1       -0.0152
      5 C           3.7320   -1.0000    0.0000 C.3     1  UNL1       -0.0159
      6 C           5.4641    1.0000    0.0000 C.3     1  UNL1       -0.0396
      7 C           6.3301    0.5000    0.0000 C.3     1  UNL1        0.0451
      8 C           2.8660   -0.5000    0.0000 C.3     1  UNL1       -0.0526
      9 C           6.3301   -0.5000    0.0000 C.2     1  UNL1        0.3073
     10 C           2.0000   -1.0000    0.0000 C.3     1  UNL1       -0.0652
     11 H           4.5981   -1.1200    0.0000 H       1  UNL1        0.0734
     12 H           4.3860    1.0826    0.0000 H       1  UNL1        0.0301
     13 H           3.9875    0.3923    0.0000 H       1  UNL1        0.0301
     14 H           3.3335   -1.4750    0.0000 H       1  UNL1        0.0301
     15 H           4.1306   -1.4750    0.0000 H       1  UNL1        0.0301
     16 H           5.8626    1.4750    0.0000 H       1  UNL1        0.0272
     17 H           5.0656    1.4750    0.0000 H       1  UNL1        0.0272
     18 H           6.9407    0.3923    0.0000 H       1  UNL1        0.0377
     19 H           6.5422    1.0826    0.0000 H       1  UNL1        0.0377
     20 H           3.2646   -0.0251    0.0000 H       1  UNL1        0.0264
     21 H           2.4675   -0.0251    0.0000 H       1  UNL1        0.0264
     22 H           1.6900   -0.4631    0.0000 H       1  UNL1        0.0230
     23 H           1.4631   -1.3100    0.0000 H       1  UNL1        0.0230
     24 H           2.3100   -1.5369    0.0000 H       1  UNL1        0.0230
@<TRIPOS>BOND
     1     1     3    1
     2     1     9    1
     3     2     9    2
     4     3     4    1
     5     3     5    1
     6     3    11    1
     7     4     6    1
     8     4    12    1
     9     4    13    1
    10     5     8    1
    11     5    14    1
    12     5    15    1
    13     6     7    1
    14     6    16    1
    15     6    17    1
    16     7     9    1
    17     7    18    1
    18     7    19    1
    19     8    10    1
    20     8    20    1
    21     8    21    1
    22    10    22    1
    23    10    23    1
    24    10    24    1
