@<TRIPOS>MOLECULE
IMPHY003934
 53 55 0 0 0
SMALL
GASTEIGER

@<TRIPOS>ATOM
      1 O           4.5798    2.1619    0.0000 O.3     1  UNL1       -0.3905
      2 O           5.1506    2.4676    0.0000 O.2     1  UNL1       -0.3003
      3 O           2.0000   -0.7644    0.0000 O.2     1  UNL1       -0.2960
      4 C           6.5166   -0.8984    0.0000 C.3     1  UNL1       -0.0247
      5 C           7.3826   -0.3984    0.0000 C.3     1  UNL1       -0.0302
      6 C           5.6506   -0.3984    0.0000 C.3     1  UNL1       -0.0174
      7 C           5.6506    0.6016    0.0000 C.3     1  UNL1        0.0557
      8 C           8.2926   -0.9052    0.0000 C.3     1  UNL1       -0.0315
      9 C           7.3826    0.6016    0.0000 C.3     1  UNL1       -0.0482
     10 C           6.5005   -1.9399    0.0000 C.3     1  UNL1       -0.0470
     11 C           6.5166    1.1016    0.0000 C.3     1  UNL1       -0.0380
     12 C           8.3007   -1.9468    0.0000 C.3     1  UNL1       -0.0476
     13 C           7.3986   -2.4676    0.0000 C.3     1  UNL1       -0.0521
     14 C           5.6506   -1.3984    0.0000 C.3     1  UNL1       -0.0590
     15 C           4.8797   -1.0047    0.0000 C.3     1  UNL1       -0.0298
     16 C           4.8797    1.2080    0.0000 C.3     1  UNL1        0.0716
     17 C           9.2926   -0.8937    0.0000 C.3     1  UNL1       -0.0595
     18 C           8.7826   -0.0335    0.0000 C.3     1  UNL1       -0.0595
     19 C           5.6506    1.6016    0.0000 C.2     1  UNL1        0.1292
     20 C           3.9244    0.9859    0.0000 C.3     1  UNL1        0.0021
     21 C           3.9244   -0.7826    0.0000 C.2     1  UNL1       -0.0774
     22 C           3.5000    0.1016    0.0000 C.2     1  UNL1       -0.0096
     23 C           2.5000    0.1016    0.0000 C.2     1  UNL1        0.1460
     24 H           8.1155    0.0323    0.0000 H       1  UNL1        0.0311
     25 H           6.3867    0.0266    0.0000 H       1  UNL1        0.0319
     26 H           7.9932    0.4940    0.0000 H       1  UNL1        0.0269
     27 H           7.5947    1.1842    0.0000 H       1  UNL1        0.0269
     28 H           5.8914   -1.8244    0.0000 H       1  UNL1        0.0271
     29 H           6.2825   -2.5203    0.0000 H       1  UNL1        0.0271
     30 H           6.9151    1.5766    0.0000 H       1  UNL1        0.0276
     31 H           6.1181    1.5766    0.0000 H       1  UNL1        0.0276
     32 H           8.5142   -2.5289    0.0000 H       1  UNL1        0.0271
     33 H           8.9107   -1.8360    0.0000 H       1  UNL1        0.0271
     34 H           6.9976   -2.9405    0.0000 H       1  UNL1        0.0266
     35 H           7.7959   -2.9436    0.0000 H       1  UNL1        0.0266
     36 H           5.3406   -0.8614    0.0000 H       1  UNL1        0.0235
     37 H           5.1136   -1.7084    0.0000 H       1  UNL1        0.0235
     38 H           5.9606   -1.9353    0.0000 H       1  UNL1        0.0235
     39 H           4.6079   -1.5620    0.0000 H       1  UNL1        0.0311
     40 H           5.3622   -1.3941    0.0000 H       1  UNL1        0.0311
     41 H           5.3898    1.5603    0.0000 H       1  UNL1        0.0606
     42 H           9.2997   -1.5136    0.0000 H       1  UNL1        0.0235
     43 H           9.9125   -0.8865    0.0000 H       1  UNL1        0.0235
     44 H           9.2854   -0.2737    0.0000 H       1  UNL1        0.0235
     45 H           9.3231   -0.3372    0.0000 H       1  UNL1        0.0235
     46 H           9.0864    0.5070    0.0000 H       1  UNL1        0.0235
     47 H           8.2421    0.2703    0.0000 H       1  UNL1        0.0235
     48 H           6.1875    1.9116    0.0000 H       1  UNL1        0.1033
     49 H           3.9224    1.6058    0.0000 H       1  UNL1        0.0339
     50 H           3.3196    1.1225    0.0000 H       1  UNL1        0.0339
     51 H           3.5365   -1.2663    0.0000 H       1  UNL1        0.0576
     52 H           3.9746    2.2966    0.0000 H       1  UNL1        0.2098
     53 H           2.1900    0.6386    0.0000 H       1  UNL1        0.1078
@<TRIPOS>BOND
     1    16     1    1
     2     1    52    1
     3     2    19    2
     4     3    23    2
     5     4     5    1
     6     4     6    1
     7     4    10    1
     8     4    14    1
     9     5     8    1
    10     5     9    1
    11     5    24    1
    12     6     7    1
    13     6    15    1
    14     6    25    1
    15     7    11    1
    16     7    16    1
    17     7    19    1
    18     8    12    1
    19     8    17    1
    20     8    18    1
    21     9    11    1
    22     9    26    1
    23     9    27    1
    24    10    13    1
    25    10    28    1
    26    10    29    1
    27    11    30    1
    28    11    31    1
    29    12    13    1
    30    12    32    1
    31    12    33    1
    32    13    34    1
    33    13    35    1
    34    14    36    1
    35    14    37    1
    36    14    38    1
    37    15    21    1
    38    15    39    1
    39    15    40    1
    40    16    20    1
    41    16    41    1
    42    17    42    1
    43    17    43    1
    44    17    44    1
    45    18    45    1
    46    18    46    1
    47    18    47    1
    48    19    48    1
    49    20    22    1
    50    20    49    1
    51    20    50    1
    52    21    22    2
    53    21    51    1
    54    22    23    1
    55    23    53    1
