@<TRIPOS>MOLECULE
IMPHY016657
 14 13 0 0 0
SMALL
GASTEIGER

@<TRIPOS>ATOM
      1 S           5.4641    0.5000    0.0000 S.3     1  UNL1       -0.0819
      2 S           4.5981    0.0000    0.0000 S.3     1  UNL1       -0.0160
      3 S           3.7320    0.5000    0.0000 S.3     1  UNL1        0.0285
      4 F           2.0000   -0.5000    0.0000 F       1  UNL1       -0.1596
      5 F           2.3660    0.8660    0.0000 F       1  UNL1       -0.1596
      6 F           3.3660   -0.8660    0.0000 F       1  UNL1       -0.1596
      7 C           6.3301   -0.0000    0.0000 C.3     1  UNL1        0.0019
      8 C           7.1962    0.5000    0.0000 C.3     1  UNL1       -0.0554
      9 C           2.8660    0.0000    0.0000 C.3     1  UNL1        0.4539
     10 H           5.9316   -0.4749    0.0000 H       1  UNL1        0.0382
     11 H           6.7287   -0.4749    0.0000 H       1  UNL1        0.0382
     12 H           7.5062   -0.0369    0.0000 H       1  UNL1        0.0238
     13 H           7.7331    0.8100    0.0000 H       1  UNL1        0.0238
     14 H           6.8862    1.0369    0.0000 H       1  UNL1        0.0238
@<TRIPOS>BOND
     1     1     2    1
     2     1     7    1
     3     2     3    1
     4     3     9    1
     5     4     9    1
     6     5     9    1
     7     6     9    1
     8     7     8    1
     9     7    10    1
    10     7    11    1
    11     8    12    1
    12     8    13    1
    13     8    14    1
