@<TRIPOS>MOLECULE
IMPHY002443
 157 165 0 0 0
SMALL
GASTEIGER

@<TRIPOS>ATOM
      1 O          13.4863    2.8555    0.0000 O.2     1  UNL1       -0.4925
      2 O          10.3604    0.8016    0.0000 O.2     1  UNL1       -0.2968
      3 O          12.0632   -5.3886    0.0000 O.3     1  UNL1       -0.3454
      4 O          10.3312   -5.3886    0.0000 O.3     1  UNL1       -0.3405
      5 O          12.0632   -7.3886    0.0000 O.3     1  UNL1       -0.3841
      6 O          10.3312   -8.3886    0.0000 O.3     1  UNL1       -0.3864
      7 O           8.5991   -7.3886    0.0000 O.3     1  UNL1       -0.3401
      8 O          13.9206    7.5093    0.0000 O.3     1  UNL1       -0.3484
      9 O           8.5991   -4.3886    0.0000 O.3     1  UNL1       -0.3924
     10 O           7.7331   -5.8886    0.0000 O.3     1  UNL1       -0.3405
     11 O          14.6204    9.0937    0.0000 O.3     1  UNL1       -0.3405
     12 O           6.8671   -8.3886    0.0000 O.3     1  UNL1       -0.3378
     13 O          15.7501    6.7013    0.0000 O.3     1  UNL1       -0.3841
     14 O           5.1350   -7.3886    0.0000 O.3     1  UNL1       -0.3864
     15 O           5.1350   -5.3886    0.0000 O.3     1  UNL1       -0.3865
     16 O          17.3646    7.8817    0.0000 O.3     1  UNL1       -0.3864
     17 O          17.1496    9.8701    0.0000 O.3     1  UNL1       -0.3865
     18 O           5.1350   -8.3886    0.0000 O.3     1  UNL1       -0.3405
     19 O           6.0010   -3.8886    0.0000 O.3     1  UNL1       -0.3924
     20 O          14.4054   11.0822    0.0000 O.3     1  UNL1       -0.3924
     21 O           6.8671  -10.3886    0.0000 O.3     1  UNL1       -0.3841
     22 O           5.1350  -11.3886    0.0000 O.3     1  UNL1       -0.3864
     23 O           3.4030  -10.3886    0.0000 O.3     1  UNL1       -0.3865
     24 O           2.5369   -8.8886    0.0000 O.3     1  UNL1       -0.3924
     25 C          12.9604    0.3117    0.0000 C.3     1  UNL1       -0.0218
     26 C          12.9643   -0.6883    0.0000 C.3     1  UNL1       -0.0335
     27 C          12.1002   -1.1917    0.0000 C.3     1  UNL1       -0.0256
     28 C          12.0925    0.8083    0.0000 C.3     1  UNL1        0.0393
     29 C          12.0881   -2.2332    0.0000 C.3     1  UNL1       -0.0256
     30 C          12.2979    1.7809    0.0000 C.3     1  UNL1        0.0325
     31 C          12.9882   -2.7575    0.0000 C.3     1  UNL1       -0.0330
     32 C          13.6949    0.9816    0.0000 C.3     1  UNL1       -0.0112
     33 C          13.8762   -1.1917    0.0000 C.3     1  UNL1       -0.0494
     34 C          13.2863    1.8878    0.0000 C.3     1  UNL1        0.1075
     35 C          11.2322   -0.6950    0.0000 C.3     1  UNL1        0.0100
     36 C          13.8883   -2.2332    0.0000 C.3     1  UNL1       -0.0494
     37 C          11.2284    0.3050    0.0000 C.2     1  UNL1        0.1404
     38 C          11.1382   -2.7575    0.0000 C.3     1  UNL1       -0.0448
     39 C          13.0008   -3.8424    0.0000 C.3     1  UNL1       -0.0232
     40 C          11.2245    1.3050    0.0000 C.3     1  UNL1       -0.0519
     41 C          11.2240   -1.7299    0.0000 C.3     1  UNL1       -0.0590
     42 C          11.8956    2.6835    0.0000 C.2     1  UNL1       -0.0277
     43 C          11.1257   -3.8424    0.0000 C.3     1  UNL1       -0.0260
     44 C          12.0632   -4.3886    0.0000 C.3     1  UNL1        0.0621
     45 C          12.6286    3.3463    0.0000 C.2     1  UNL1        0.0975
     46 C          10.9172    2.8902    0.0000 C.3     1  UNL1       -0.0400
     47 C          12.5211    4.3405    0.0000 C.3     1  UNL1        0.0052
     48 C          11.1972   -5.8886    0.0000 C.3     1  UNL1        0.1882
     49 C          13.3284    4.9307    0.0000 C.3     1  UNL1       -0.0415
     50 C          11.1972   -6.8886    0.0000 C.3     1  UNL1        0.1341
     51 C          13.2209    5.9249    0.0000 C.3     1  UNL1       -0.0199
     52 C          10.3312   -7.3886    0.0000 C.3     1  UNL1        0.1144
     53 C           9.4651   -5.8886    0.0000 C.3     1  UNL1        0.1134
     54 C           9.4651   -6.8886    0.0000 C.3     1  UNL1        0.1184
     55 C          14.0281    6.5151    0.0000 C.3     1  UNL1        0.0533
     56 C          12.3061    6.3289    0.0000 C.3     1  UNL1       -0.0603
     57 C           8.5991   -5.3886    0.0000 C.3     1  UNL1        0.0730
     58 C           7.7331   -6.8886    0.0000 C.3     1  UNL1        0.1888
     59 C          14.7279    8.0995    0.0000 C.3     1  UNL1        0.1879
     60 C           6.8671   -7.3886    0.0000 C.3     1  UNL1        0.1406
     61 C          15.6426    7.6955    0.0000 C.3     1  UNL1        0.1341
     62 C           6.0010   -6.8886    0.0000 C.3     1  UNL1        0.1144
     63 C           6.8671   -5.3886    0.0000 C.3     1  UNL1        0.1130
     64 C           6.0010   -5.8886    0.0000 C.3     1  UNL1        0.1119
     65 C          16.4499    8.2857    0.0000 C.3     1  UNL1        0.1141
     66 C          15.4276    9.6839    0.0000 C.3     1  UNL1        0.1130
     67 C          16.3424    9.2799    0.0000 C.3     1  UNL1        0.1119
     68 C           6.8671   -4.3886    0.0000 C.3     1  UNL1        0.0730
     69 C           6.0010   -8.8886    0.0000 C.3     1  UNL1        0.1885
     70 C          15.3201   10.6781    0.0000 C.3     1  UNL1        0.0730
     71 C           6.0010   -9.8886    0.0000 C.3     1  UNL1        0.1341
     72 C           5.1350  -10.3886    0.0000 C.3     1  UNL1        0.1141
     73 C           4.2690   -8.8886    0.0000 C.3     1  UNL1        0.1130
     74 C           4.2690   -9.8886    0.0000 C.3     1  UNL1        0.1119
     75 C           3.4030   -8.3886    0.0000 C.3     1  UNL1        0.0730
     76 H          13.7387   -0.0301    0.0000 H       1  UNL1        0.0314
     77 H          13.6954   -0.2549    0.0000 H       1  UNL1        0.0307
     78 H          12.8347   -1.6195    0.0000 H       1  UNL1        0.0313
     79 H          11.4527    1.6914    0.0000 H       1  UNL1        0.0392
     80 H          13.7276   -3.1768    0.0000 H       1  UNL1        0.0307
     81 H          14.0622    0.4821    0.0000 H       1  UNL1        0.0304
     82 H          14.2301    1.2944    0.0000 H       1  UNL1        0.0304
     83 H          14.4883   -1.2907    0.0000 H       1  UNL1        0.0268
     84 H          14.0785   -0.6056    0.0000 H       1  UNL1        0.0268
     85 H          14.1311    1.9810    0.0000 H       1  UNL1        0.0739
     86 H          10.6212   -0.5897    0.0000 H       1  UNL1        0.0345
     87 H          11.0224   -1.2784    0.0000 H       1  UNL1        0.0345
     88 H          14.1041   -2.8145    0.0000 H       1  UNL1        0.0268
     89 H          14.4979   -2.1201    0.0000 H       1  UNL1        0.0268
     90 H          10.9359   -2.1714    0.0000 H       1  UNL1        0.0271
     91 H          10.5262   -2.8565    0.0000 H       1  UNL1        0.0271
     92 H          13.2165   -4.4237    0.0000 H       1  UNL1        0.0293
     93 H          13.6103   -3.7293    0.0000 H       1  UNL1        0.0293
     94 H          11.5325    1.8431    0.0000 H       1  UNL1        0.0239
     95 H          10.6864    1.6129    0.0000 H       1  UNL1        0.0239
     96 H          10.9166    0.7668    0.0000 H       1  UNL1        0.0239
     97 H          11.5361   -1.1942    0.0000 H       1  UNL1        0.0235
     98 H          10.6883   -1.4178    0.0000 H       1  UNL1        0.0235
     99 H          10.9120   -2.2656    0.0000 H       1  UNL1        0.0235
    100 H          10.5161   -3.7293    0.0000 H       1  UNL1        0.0290
    101 H          10.9099   -4.4237    0.0000 H       1  UNL1        0.0290
    102 H          12.6007   -4.6975    0.0000 H       1  UNL1        0.0597
    103 H          11.0454    3.4968    0.0000 H       1  UNL1        0.0276
    104 H          10.3106    3.0184    0.0000 H       1  UNL1        0.0276
    105 H          10.7891    2.2836    0.0000 H       1  UNL1        0.0276
    106 H          12.2477    4.8970    0.0000 H       1  UNL1        0.0343
    107 H          11.9256    4.1678    0.0000 H       1  UNL1        0.0343
    108 H          11.7341   -6.1986    0.0000 H       1  UNL1        0.0937
    109 H          13.6018    4.3743    0.0000 H       1  UNL1        0.0273
    110 H          13.9238    5.1034    0.0000 H       1  UNL1        0.0273
    111 H          11.1972   -7.5086    0.0000 H       1  UNL1        0.0671
    112 H          12.7204    5.5590    0.0000 H       1  UNL1        0.0320
    113 H           9.7942   -7.6986    0.0000 H       1  UNL1        0.0648
    114 H           9.4651   -5.2686    0.0000 H       1  UNL1        0.0647
    115 H           8.9282   -6.5786    0.0000 H       1  UNL1        0.0651
    116 H          14.3016    5.9587    0.0000 H       1  UNL1        0.0563
    117 H          14.6236    6.6878    0.0000 H       1  UNL1        0.0563
    118 H          12.5566    6.8961    0.0000 H       1  UNL1        0.0233
    119 H          11.7390    6.5794    0.0000 H       1  UNL1        0.0233
    120 H          12.0556    5.7618    0.0000 H       1  UNL1        0.0233
    121 H          12.6002   -7.0786    0.0000 H       1  UNL1        0.2101
    122 H           7.9885   -5.2809    0.0000 H       1  UNL1        0.0584
    123 H           8.3871   -5.9712    0.0000 H       1  UNL1        0.0584
    124 H          10.8681   -8.6986    0.0000 H       1  UNL1        0.2100
    125 H           7.7331   -7.5086    0.0000 H       1  UNL1        0.0938
    126 H          14.7945    7.4831    0.0000 H       1  UNL1        0.0937
    127 H           8.0622   -4.0786    0.0000 H       1  UNL1        0.2095
    128 H           6.3301   -7.6986    0.0000 H       1  UNL1        0.0675
    129 H          16.2098    7.4450    0.0000 H       1  UNL1        0.0671
    130 H           5.4641   -6.5786    0.0000 H       1  UNL1        0.0648
    131 H           7.4040   -5.0786    0.0000 H       1  UNL1        0.0647
    132 H           6.0010   -5.2686    0.0000 H       1  UNL1        0.0647
    133 H          16.9504    8.6517    0.0000 H       1  UNL1        0.0648
    134 H          14.8605    9.9344    0.0000 H       1  UNL1        0.0647
    135 H          16.2757    9.8964    0.0000 H       1  UNL1        0.0647
    136 H           7.4776   -4.4962    0.0000 H       1  UNL1        0.0584
    137 H           7.0791   -3.8060    0.0000 H       1  UNL1        0.0584
    138 H          16.3173    6.4508    0.0000 H       1  UNL1        0.2101
    139 H           6.5380   -9.1986    0.0000 H       1  UNL1        0.0938
    140 H           4.5981   -7.0786    0.0000 H       1  UNL1        0.2100
    141 H          15.9387   10.6367    0.0000 H       1  UNL1        0.0584
    142 H          15.4683   11.2802    0.0000 H       1  UNL1        0.0584
    143 H           4.5981   -5.6986    0.0000 H       1  UNL1        0.2100
    144 H          17.8651    8.2476    0.0000 H       1  UNL1        0.2100
    145 H           6.0010  -10.5086    0.0000 H       1  UNL1        0.0671
    146 H          17.0830   10.4865    0.0000 H       1  UNL1        0.2100
    147 H           4.5981  -10.6986    0.0000 H       1  UNL1        0.0648
    148 H           4.2690   -8.2686    0.0000 H       1  UNL1        0.0647
    149 H           6.0010   -3.2686    0.0000 H       1  UNL1        0.2095
    150 H           3.7320   -9.5786    0.0000 H       1  UNL1        0.0647
    151 H          14.3387   11.6986    0.0000 H       1  UNL1        0.2095
    152 H           6.8671  -11.0086    0.0000 H       1  UNL1        0.2101
    153 H           3.8015   -7.9136    0.0000 H       1  UNL1        0.0584
    154 H           3.0044   -7.9136    0.0000 H       1  UNL1        0.0584
    155 H           4.5981  -11.6986    0.0000 H       1  UNL1        0.2100
    156 H           3.4030  -11.0086    0.0000 H       1  UNL1        0.2100
    157 H           2.0000   -8.5786    0.0000 H       1  UNL1        0.2095
@<TRIPOS>BOND
     1     1    34    1
     2     1    45    1
     3     2    37    2
     4    44     3    1
     5    48     3    1
     6     4    48    1
     7     4    53    1
     8    50     5    1
     9     5   121    1
    10    52     6    1
    11     6   124    1
    12    54     7    1
    13    58     7    1
    14     8    55    1
    15    59     8    1
    16     9    57    1
    17     9   127    1
    18    10    58    1
    19    10    63    1
    20    11    59    1
    21    11    66    1
    22    60    12    1
    23    69    12    1
    24    61    13    1
    25    13   138    1
    26    62    14    1
    27    14   140    1
    28    64    15    1
    29    15   143    1
    30    65    16    1
    31    16   144    1
    32    67    17    1
    33    17   146    1
    34    18    69    1
    35    18    73    1
    36    19    68    1
    37    19   149    1
    38    20    70    1
    39    20   151    1
    40    71    21    1
    41    21   152    1
    42    72    22    1
    43    22   155    1
    44    74    23    1
    45    23   156    1
    46    24    75    1
    47    24   157    1
    48    25    26    1
    49    25    28    1
    50    25    32    1
    51    25    76    1
    52    26    27    1
    53    26    33    1
    54    26    77    1
    55    27    29    1
    56    27    35    1
    57    27    78    1
    58    28    30    1
    59    28    37    1
    60    28    40    1
    61    29    31    1
    62    29    38    1
    63    29    41    1
    64    30    34    1
    65    30    42    1
    66    30    79    1
    67    31    36    1
    68    31    39    1
    69    31    80    1
    70    32    34    1
    71    32    81    1
    72    32    82    1
    73    33    36    1
    74    33    83    1
    75    33    84    1
    76    34    85    1
    77    35    37    1
    78    35    86    1
    79    35    87    1
    80    36    88    1
    81    36    89    1
    82    38    43    1
    83    38    90    1
    84    38    91    1
    85    39    44    1
    86    39    92    1
    87    39    93    1
    88    40    94    1
    89    40    95    1
    90    40    96    1
    91    41    97    1
    92    41    98    1
    93    41    99    1
    94    42    45    2
    95    42    46    1
    96    43    44    1
    97    43   100    1
    98    43   101    1
    99    44   102    1
   100    45    47    1
   101    46   103    1
   102    46   104    1
   103    46   105    1
   104    47    49    1
   105    47   106    1
   106    47   107    1
   107    48    50    1
   108    48   108    1
   109    49    51    1
   110    49   109    1
   111    49   110    1
   112    50    52    1
   113    50   111    1
   114    51    55    1
   115    51    56    1
   116    51   112    1
   117    52    54    1
   118    52   113    1
   119    53    54    1
   120    53    57    1
   121    53   114    1
   122    54   115    1
   123    55   116    1
   124    55   117    1
   125    56   118    1
   126    56   119    1
   127    56   120    1
   128    57   122    1
   129    57   123    1
   130    58    60    1
   131    58   125    1
   132    59    61    1
   133    59   126    1
   134    60    62    1
   135    60   128    1
   136    61    65    1
   137    61   129    1
   138    62    64    1
   139    62   130    1
   140    63    64    1
   141    63    68    1
   142    63   131    1
   143    64   132    1
   144    65    67    1
   145    65   133    1
   146    66    67    1
   147    66    70    1
   148    66   134    1
   149    67   135    1
   150    68   136    1
   151    68   137    1
   152    69    71    1
   153    69   139    1
   154    70   141    1
   155    70   142    1
   156    71    72    1
   157    71   145    1
   158    72    74    1
   159    72   147    1
   160    73    74    1
   161    73    75    1
   162    73   148    1
   163    74   150    1
   164    75   153    1
   165    75   154    1
