@<TRIPOS>MOLECULE
IMPHY016493
 36 35 0 0 0
SMALL
GASTEIGER

@<TRIPOS>ATOM
      1 C           3.7320    0.2500    0.0000 C.3     1  UNL1       -0.0441
      2 C           4.5981    0.7500    0.0000 C.3     1  UNL1       -0.0505
      3 C           5.4641    0.2500    0.0000 C.3     1  UNL1       -0.0528
      4 C           6.3301    0.7500    0.0000 C.3     1  UNL1       -0.0530
      5 C           2.8660    0.7500    0.0000 C.3     1  UNL1       -0.0533
      6 C           7.1962    0.2500    0.0000 C.3     1  UNL1       -0.0528
      7 C           3.7320   -0.7500    0.0000 C.3     1  UNL1       -0.0624
      8 C           8.0622    0.7500    0.0000 C.3     1  UNL1       -0.0496
      9 C           2.0000    0.2500    0.0000 C.3     1  UNL1       -0.0650
     10 C           8.9282    0.2500    0.0000 C.3     1  UNL1       -0.0350
     11 C           9.7942    0.7500    0.0000 C.2     1  UNL1       -0.0911
     12 C          10.6603    0.2500    0.0000 C.2     1  UNL1       -0.1026
     13 H           4.2690   -0.0600    0.0000 H       1  UNL1        0.0298
     14 H           4.9966    1.2250    0.0000 H       1  UNL1        0.0268
     15 H           4.1996    1.2250    0.0000 H       1  UNL1        0.0268
     16 H           5.0656   -0.2249    0.0000 H       1  UNL1        0.0265
     17 H           5.8626   -0.2249    0.0000 H       1  UNL1        0.0265
     18 H           6.7287    1.2250    0.0000 H       1  UNL1        0.0265
     19 H           5.9316    1.2250    0.0000 H       1  UNL1        0.0265
     20 H           3.2646    1.2250    0.0000 H       1  UNL1        0.0265
     21 H           2.4675    1.2250    0.0000 H       1  UNL1        0.0265
     22 H           6.7976   -0.2249    0.0000 H       1  UNL1        0.0265
     23 H           7.5947   -0.2249    0.0000 H       1  UNL1        0.0265
     24 H           3.1120   -0.7500    0.0000 H       1  UNL1        0.0232
     25 H           3.7320   -1.3700    0.0000 H       1  UNL1        0.0232
     26 H           4.3520   -0.7500    0.0000 H       1  UNL1        0.0232
     27 H           8.4607    1.2250    0.0000 H       1  UNL1        0.0268
     28 H           7.6636    1.2250    0.0000 H       1  UNL1        0.0268
     29 H           1.6900    0.7869    0.0000 H       1  UNL1        0.0230
     30 H           1.4631   -0.0600    0.0000 H       1  UNL1        0.0230
     31 H           2.3100   -0.2869    0.0000 H       1  UNL1        0.0230
     32 H           8.5297   -0.2249    0.0000 H       1  UNL1        0.0307
     33 H           9.3267   -0.2249    0.0000 H       1  UNL1        0.0307
     34 H           9.7942    1.3700    0.0000 H       1  UNL1        0.0566
     35 H          10.6603   -0.3700    0.0000 H       1  UNL1        0.0532
     36 H          11.1972    0.5600    0.0000 H       1  UNL1        0.0532
@<TRIPOS>BOND
     1     1     2    1
     2     1     5    1
     3     1     7    1
     4     1    13    1
     5     2     3    1
     6     2    14    1
     7     2    15    1
     8     3     4    1
     9     3    16    1
    10     3    17    1
    11     4     6    1
    12     4    18    1
    13     4    19    1
    14     5     9    1
    15     5    20    1
    16     5    21    1
    17     6     8    1
    18     6    22    1
    19     6    23    1
    20     7    24    1
    21     7    25    1
    22     7    26    1
    23     8    10    1
    24     8    27    1
    25     8    28    1
    26     9    29    1
    27     9    30    1
    28     9    31    1
    29    10    11    1
    30    10    32    1
    31    10    33    1
    32    11    12    2
    33    11    34    1
    34    12    35    1
    35    12    36    1
