@<TRIPOS>MOLECULE
IMPHY016921
 46 48 0 0 0
SMALL
GASTEIGER

@<TRIPOS>ATOM
      1 O           7.2901    0.5347    0.0000 O.3     1  UNL1       -0.4811
      2 O           3.7702    0.5347    0.0000 O.2     1  UNL1       -0.4216
      3 O           5.5301   -2.5000    0.0000 O.3     1  UNL1       -0.4937
      4 O           2.0000    0.5242    0.0000 O.2     1  UNL1       -0.2452
      5 C           5.5301    1.5000    0.0000 C.3     1  UNL1        0.0148
      6 C           5.5301    0.5000    0.0000 C.ar    1  UNL1        0.0473
      7 C           6.3961    0.0000    0.0000 C.ar    1  UNL1        0.1399
      8 C           8.1962    0.0208    0.0000 C.3     1  UNL1        0.1235
      9 C           6.3961   -1.0000    0.0000 C.ar    1  UNL1        0.0592
     10 C           4.6641    0.0000    0.0000 C.ar    1  UNL1        0.1500
     11 C           4.6641   -1.0000    0.0000 C.ar    1  UNL1        0.0603
     12 C           4.5301    1.5000    0.0000 C.3     1  UNL1       -0.0521
     13 C           6.5301    1.5000    0.0000 C.3     1  UNL1       -0.0521
     14 C           5.5301   -1.5000    0.0000 C.ar    1  UNL1        0.1413
     15 C           8.1962   -1.0208    0.0000 C.2     1  UNL1       -0.0408
     16 C           7.2901   -1.5347    0.0000 C.2     1  UNL1       -0.0478
     17 C           5.5301    2.5000    0.0000 C.2     1  UNL1       -0.0809
     18 C           9.1962    0.0247    0.0000 C.3     1  UNL1       -0.0215
     19 C           8.6928    0.8888    0.0000 C.3     1  UNL1       -0.0215
     20 C           3.7702   -1.5347    0.0000 C.ar    1  UNL1       -0.0408
     21 C           2.8641   -1.0208    0.0000 C.ar    1  UNL1        0.0237
     22 C           2.8641    0.0208    0.0000 C.ar    1  UNL1        0.3372
     23 C           4.6641    3.0000    0.0000 C.2     1  UNL1       -0.1018
     24 C           4.6641   -3.0000    0.0000 C.3     1  UNL1        0.0788
     25 H           6.5301    0.8800    0.0000 H       1  UNL1        0.0241
     26 H           7.1501    1.5000    0.0000 H       1  UNL1        0.0241
     27 H           6.5301    2.1200    0.0000 H       1  UNL1        0.0241
     28 H           4.5301    2.1200    0.0000 H       1  UNL1        0.0241
     29 H           3.9101    1.5000    0.0000 H       1  UNL1        0.0241
     30 H           4.5301    0.8800    0.0000 H       1  UNL1        0.0241
     31 H           8.7319   -1.3329    0.0000 H       1  UNL1        0.0611
     32 H           7.2829   -2.1546    0.0000 H       1  UNL1        0.0624
     33 H           6.0671    2.8100    0.0000 H       1  UNL1        0.0575
     34 H           9.2310    0.5808    0.0000 H       1  UNL1        0.0271
     35 H           9.0008    1.4269    0.0000 H       1  UNL1        0.0271
     36 H           8.1547    1.1967    0.0000 H       1  UNL1        0.0271
     37 H           9.1985   -0.5953    0.0000 H       1  UNL1        0.0271
     38 H           9.8162    0.0271    0.0000 H       1  UNL1        0.0271
     39 H           9.1938    0.6447    0.0000 H       1  UNL1        0.0271
     40 H           3.7773   -2.1546    0.0000 H       1  UNL1        0.0628
     41 H           2.3284   -1.3329    0.0000 H       1  UNL1        0.0689
     42 H           4.6641    3.6200    0.0000 H       1  UNL1        0.0532
     43 H           4.1272    2.6900    0.0000 H       1  UNL1        0.0532
     44 H           4.3541   -2.4631    0.0000 H       1  UNL1        0.0660
     45 H           4.1272   -3.3100    0.0000 H       1  UNL1        0.0660
     46 H           4.9741   -3.5369    0.0000 H       1  UNL1        0.0660
@<TRIPOS>BOND
     1     1     7    1
     2     1     8    1
     3     2    10   ar
     4     2    22   ar
     5     3    14    1
     6     3    24    1
     7     4    22    2
     8     5     6    1
     9     5    12    1
    10     5    13    1
    11     5    17    1
    12     6     7   ar
    13     6    10   ar
    14     7     9   ar
    15     8    15    1
    16     8    18    1
    17     8    19    1
    18     9    14   ar
    19     9    16    1
    20    10    11   ar
    21    11    14   ar
    22    11    20   ar
    23    12    28    1
    24    12    29    1
    25    12    30    1
    26    13    25    1
    27    13    26    1
    28    13    27    1
    29    15    16    2
    30    15    31    1
    31    16    32    1
    32    17    23    2
    33    17    33    1
    34    18    37    1
    35    18    38    1
    36    18    39    1
    37    19    34    1
    38    19    35    1
    39    19    36    1
    40    20    21   ar
    41    20    40    1
    42    21    22   ar
    43    21    41    1
    44    23    42    1
    45    23    43    1
    46    24    44    1
    47    24    45    1
    48    24    46    1
