@<TRIPOS>MOLECULE
IMPHY015364
 35 34 0 0 0
SMALL
GASTEIGER

@<TRIPOS>ATOM
      1 O           8.0622   -1.0000    0.0000 O.2     1  UNL1       -0.2977
      2 C           6.3301    0.0000    0.0000 C.3     1  UNL1       -0.0280
      3 C           5.4641   -0.5000    0.0000 C.3     1  UNL1       -0.0440
      4 C           7.1962    0.5000    0.0000 C.3     1  UNL1        0.0107
      5 C           5.8301    0.8660    0.0000 C.3     1  UNL1       -0.0594
      6 C           6.8301   -0.8660    0.0000 C.3     1  UNL1       -0.0594
      7 C           4.5981    0.0000    0.0000 C.3     1  UNL1       -0.0340
      8 C           8.0622    0.0000    0.0000 C.2     1  UNL1        0.1308
      9 C           3.7320   -0.5000    0.0000 C.2     1  UNL1       -0.0853
     10 C           8.9282    0.5000    0.0000 C.3     1  UNL1       -0.0060
     11 C           2.8660   -0.0000    0.0000 C.2     1  UNL1       -0.0796
     12 C           2.0000   -0.5000    0.0000 C.3     1  UNL1       -0.0440
     13 C           2.8660    1.0000    0.0000 C.3     1  UNL1       -0.0440
     14 H           5.0656   -0.9749    0.0000 H       1  UNL1        0.0273
     15 H           5.8626   -0.9749    0.0000 H       1  UNL1        0.0273
     16 H           7.5947    0.9749    0.0000 H       1  UNL1        0.0347
     17 H           6.7976    0.9749    0.0000 H       1  UNL1        0.0347
     18 H           6.3671    1.1760    0.0000 H       1  UNL1        0.0235
     19 H           5.5201    1.4030    0.0000 H       1  UNL1        0.0235
     20 H           5.2932    0.5560    0.0000 H       1  UNL1        0.0235
     21 H           6.2932   -1.1760    0.0000 H       1  UNL1        0.0235
     22 H           7.1401   -1.4030    0.0000 H       1  UNL1        0.0235
     23 H           7.3671   -0.5560    0.0000 H       1  UNL1        0.0235
     24 H           4.9966    0.4749    0.0000 H       1  UNL1        0.0308
     25 H           4.1996    0.4749    0.0000 H       1  UNL1        0.0308
     26 H           3.7320   -1.1200    0.0000 H       1  UNL1        0.0571
     27 H           9.2382   -0.0369    0.0000 H       1  UNL1        0.0306
     28 H           9.4651    0.8100    0.0000 H       1  UNL1        0.0306
     29 H           8.6182    1.0369    0.0000 H       1  UNL1        0.0306
     30 H           1.6900    0.0369    0.0000 H       1  UNL1        0.0274
     31 H           1.4631   -0.8100    0.0000 H       1  UNL1        0.0274
     32 H           2.3100   -1.0369    0.0000 H       1  UNL1        0.0274
     33 H           3.4860    1.0000    0.0000 H       1  UNL1        0.0274
     34 H           2.8660    1.6200    0.0000 H       1  UNL1        0.0274
     35 H           2.2460    1.0000    0.0000 H       1  UNL1        0.0274
@<TRIPOS>BOND
     1     1     8    2
     2     2     3    1
     3     2     4    1
     4     2     5    1
     5     2     6    1
     6     3     7    1
     7     3    14    1
     8     3    15    1
     9     4     8    1
    10     4    16    1
    11     4    17    1
    12     5    18    1
    13     5    19    1
    14     5    20    1
    15     6    21    1
    16     6    22    1
    17     6    23    1
    18     7     9    1
    19     7    24    1
    20     7    25    1
    21     8    10    1
    22     9    11    2
    23     9    26    1
    24    10    27    1
    25    10    28    1
    26    10    29    1
    27    11    12    1
    28    11    13    1
    29    12    30    1
    30    12    31    1
    31    12    32    1
    32    13    33    1
    33    13    34    1
    34    13    35    1
