@<TRIPOS>MOLECULE
IMPHY016424
 35 34 0 0 0
SMALL
GASTEIGER

@<TRIPOS>ATOM
      1 C           4.5981    0.2500    0.0000 C.3     1  UNL1       -0.0439
      2 C           5.4641    0.7500    0.0000 C.3     1  UNL1       -0.0505
      3 C           6.3301    0.2500    0.0000 C.3     1  UNL1       -0.0528
      4 C           3.7320    0.7500    0.0000 C.3     1  UNL1       -0.0507
      5 C           7.1962    0.7500    0.0000 C.3     1  UNL1       -0.0531
      6 C           4.5981   -0.7500    0.0000 C.3     1  UNL1       -0.0624
      7 C           8.0622    0.2500    0.0000 C.3     1  UNL1       -0.0533
      8 C           2.8660    0.2500    0.0000 C.3     1  UNL1       -0.0557
      9 C           8.9282    0.7500    0.0000 C.3     1  UNL1       -0.0559
     10 C           2.0000    0.7500    0.0000 C.3     1  UNL1       -0.0653
     11 C           9.7942    0.2500    0.0000 C.3     1  UNL1       -0.0653
     12 H           5.1350   -0.0600    0.0000 H       1  UNL1        0.0298
     13 H           5.8626    1.2250    0.0000 H       1  UNL1        0.0268
     14 H           5.0656    1.2250    0.0000 H       1  UNL1        0.0268
     15 H           5.9316   -0.2249    0.0000 H       1  UNL1        0.0265
     16 H           6.7287   -0.2249    0.0000 H       1  UNL1        0.0265
     17 H           4.1306    1.2250    0.0000 H       1  UNL1        0.0268
     18 H           3.3335    1.2250    0.0000 H       1  UNL1        0.0268
     19 H           7.5947    1.2250    0.0000 H       1  UNL1        0.0265
     20 H           6.7976    1.2250    0.0000 H       1  UNL1        0.0265
     21 H           3.9781   -0.7500    0.0000 H       1  UNL1        0.0232
     22 H           4.5981   -1.3700    0.0000 H       1  UNL1        0.0232
     23 H           5.2181   -0.7500    0.0000 H       1  UNL1        0.0232
     24 H           7.6636   -0.2249    0.0000 H       1  UNL1        0.0265
     25 H           8.4607   -0.2249    0.0000 H       1  UNL1        0.0265
     26 H           2.4675   -0.2249    0.0000 H       1  UNL1        0.0263
     27 H           3.2646   -0.2249    0.0000 H       1  UNL1        0.0263
     28 H           9.3267    1.2250    0.0000 H       1  UNL1        0.0263
     29 H           8.5297    1.2250    0.0000 H       1  UNL1        0.0263
     30 H           2.3100    1.2869    0.0000 H       1  UNL1        0.0230
     31 H           1.4631    1.0600    0.0000 H       1  UNL1        0.0230
     32 H           1.6900    0.2131    0.0000 H       1  UNL1        0.0230
     33 H           9.4842   -0.2869    0.0000 H       1  UNL1        0.0230
     34 H          10.3312   -0.0600    0.0000 H       1  UNL1        0.0230
     35 H          10.1042    0.7869    0.0000 H       1  UNL1        0.0230
@<TRIPOS>BOND
     1     1     2    1
     2     1     4    1
     3     1     6    1
     4     1    12    1
     5     2     3    1
     6     2    13    1
     7     2    14    1
     8     3     5    1
     9     3    15    1
    10     3    16    1
    11     4     8    1
    12     4    17    1
    13     4    18    1
    14     5     7    1
    15     5    19    1
    16     5    20    1
    17     6    21    1
    18     6    22    1
    19     6    23    1
    20     7     9    1
    21     7    24    1
    22     7    25    1
    23     8    10    1
    24     8    26    1
    25     8    27    1
    26     9    11    1
    27     9    28    1
    28     9    29    1
    29    10    30    1
    30    10    31    1
    31    10    32    1
    32    11    33    1
    33    11    34    1
    34    11    35    1
