@<TRIPOS>MOLECULE
IMPHY009469
 68 69 0 0 0
SMALL
GASTEIGER

@<TRIPOS>ATOM
      1 O           6.3301   -1.2141    0.0000 O.2     1  UNL1       -0.5097
      2 O           2.8660   -1.2141    0.0000 O.2     1  UNL1       -0.2908
      3 O           4.5981   -4.2141    0.0000 O.2     1  UNL1       -0.5056
      4 O           6.0981    1.3840    0.0000 O.3     1  UNL1       -0.5055
      5 O           3.0981   -0.3481    0.0000 O.3     1  UNL1       -0.5060
      6 O           2.0000   -2.7141    0.0000 O.2     1  UNL1       -0.2915
      7 O           3.0981    3.1160    0.0000 O.3     1  UNL1       -0.4939
      8 O           6.0981    3.1160    0.0000 O.2     1  UNL1       -0.2918
      9 C           4.5981   -1.2141    0.0000 C.3     1  UNL1        0.0922
     10 C           5.0981   -0.3481    0.0000 C.3     1  UNL1       -0.0013
     11 C           5.4641   -1.7141    0.0000 C.2     1  UNL1        0.1141
     12 C           3.7320   -1.7141    0.0000 C.2     1  UNL1        0.1834
     13 C           4.0981   -0.3481    0.0000 C.3     1  UNL1       -0.0452
     14 C           4.5981    0.5179    0.0000 C.ar    1  UNL1        0.0379
     15 C           3.7320   -2.7141    0.0000 C.2     1  UNL1        0.1026
     16 C           5.4641   -2.7141    0.0000 C.2     1  UNL1        0.0299
     17 C           4.5981   -3.2141    0.0000 C.2     1  UNL1        0.1368
     18 C           2.8660   -3.2141    0.0000 C.2     1  UNL1        0.1728
     19 C           2.8660   -4.2141    0.0000 C.3     1  UNL1        0.0193
     20 C           5.0981    1.3840    0.0000 C.ar    1  UNL1        0.1375
     21 C           3.5981    0.5179    0.0000 C.ar    1  UNL1        0.1299
     22 C           6.3301   -3.2141    0.0000 C.3     1  UNL1       -0.0330
     23 C           4.5981    2.2500    0.0000 C.ar    1  UNL1        0.1010
     24 C           3.0981    1.3840    0.0000 C.ar    1  UNL1        0.0337
     25 C           2.0000   -4.7141    0.0000 C.3     1  UNL1       -0.0463
     26 C           3.5981    2.2500    0.0000 C.ar    1  UNL1        0.1404
     27 C           3.7320   -4.7141    0.0000 C.3     1  UNL1       -0.0554
     28 C           5.0981    3.1160    0.0000 C.2     1  UNL1        0.1702
     29 C           2.0981    1.3840    0.0000 C.3     1  UNL1       -0.0327
     30 C           2.0000   -5.7141    0.0000 C.3     1  UNL1       -0.0646
     31 C           4.5981    3.9820    0.0000 C.3     1  UNL1        0.0105
     32 C           5.0981    4.8481    0.0000 C.3     1  UNL1       -0.0489
     33 C           2.0981    3.1160    0.0000 C.3     1  UNL1        0.0788
     34 C           4.5981    5.7141    0.0000 C.3     1  UNL1       -0.0649
     35 H           5.5730   -0.7466    0.0000 H       1  UNL1        0.0329
     36 H           5.5730    0.0505    0.0000 H       1  UNL1        0.0329
     37 H           4.6350   -0.0381    0.0000 H       1  UNL1        0.0243
     38 H           3.7881    0.1889    0.0000 H       1  UNL1        0.0243
     39 H           3.5611   -0.6581    0.0000 H       1  UNL1        0.0243
     40 H           2.8660   -5.0641    0.0000 H       1  UNL1        0.0378
     41 H           6.0201   -3.7510    0.0000 H       1  UNL1        0.0280
     42 H           6.8671   -3.5241    0.0000 H       1  UNL1        0.0280
     43 H           6.6401   -2.6772    0.0000 H       1  UNL1        0.0280
     44 H           1.7880   -4.1315    0.0000 H       1  UNL1        0.0269
     45 H           1.3894   -4.8218    0.0000 H       1  UNL1        0.0269
     46 H           6.8671   -1.5241    0.0000 H       1  UNL1        0.2917
     47 H           3.4220   -5.2510    0.0000 H       1  UNL1        0.0237
     48 H           4.2690   -5.0241    0.0000 H       1  UNL1        0.0237
     49 H           4.0420   -4.1772    0.0000 H       1  UNL1        0.0237
     50 H           5.1350   -4.5241    0.0000 H       1  UNL1        0.2922
     51 H           2.0981    2.0040    0.0000 H       1  UNL1        0.0280
     52 H           1.4781    1.3840    0.0000 H       1  UNL1        0.0280
     53 H           2.0981    0.7640    0.0000 H       1  UNL1        0.0280
     54 H           1.3800   -5.7141    0.0000 H       1  UNL1        0.0230
     55 H           2.0000   -6.3341    0.0000 H       1  UNL1        0.0230
     56 H           2.6200   -5.7141    0.0000 H       1  UNL1        0.0230
     57 H           4.1231    4.3806    0.0000 H       1  UNL1        0.0345
     58 H           4.1231    3.5835    0.0000 H       1  UNL1        0.0345
     59 H           6.4081    1.9209    0.0000 H       1  UNL1        0.2922
     60 H           2.4781   -0.3481    0.0000 H       1  UNL1        0.2922
     61 H           5.5730    4.4496    0.0000 H       1  UNL1        0.0267
     62 H           5.5730    5.2466    0.0000 H       1  UNL1        0.0267
     63 H           2.0981    3.7360    0.0000 H       1  UNL1        0.0660
     64 H           1.4781    3.1160    0.0000 H       1  UNL1        0.0660
     65 H           2.0981    2.4960    0.0000 H       1  UNL1        0.0660
     66 H           5.1350    6.0241    0.0000 H       1  UNL1        0.0230
     67 H           4.2881    6.2510    0.0000 H       1  UNL1        0.0230
     68 H           4.0611    5.4041    0.0000 H       1  UNL1        0.0230
@<TRIPOS>BOND
     1     1    11    1
     2     1    46    1
     3     2    12    2
     4     3    17    1
     5     3    50    1
     6     4    20    1
     7     4    59    1
     8     5    21    1
     9     5    60    1
    10     6    18    2
    11     7    26    1
    12     7    33    1
    13     8    28    2
    14     9    10    1
    15     9    11    1
    16     9    12    1
    17     9    13    1
    18    10    14    1
    19    10    35    1
    20    10    36    1
    21    11    16    2
    22    12    15    1
    23    13    37    1
    24    13    38    1
    25    13    39    1
    26    14    20   ar
    27    14    21   ar
    28    15    17    2
    29    15    18    1
    30    16    17    1
    31    16    22    1
    32    18    19    1
    33    19    25    1
    34    19    27    1
    35    19    40    1
    36    20    23   ar
    37    21    24   ar
    38    22    41    1
    39    22    42    1
    40    22    43    1
    41    23    26   ar
    42    23    28    1
    43    24    26   ar
    44    24    29    1
    45    25    30    1
    46    25    44    1
    47    25    45    1
    48    27    47    1
    49    27    48    1
    50    27    49    1
    51    28    31    1
    52    29    51    1
    53    29    52    1
    54    29    53    1
    55    30    54    1
    56    30    55    1
    57    30    56    1
    58    31    32    1
    59    31    57    1
    60    31    58    1
    61    32    34    1
    62    32    61    1
    63    32    62    1
    64    33    63    1
    65    33    64    1
    66    33    65    1
    67    34    66    1
    68    34    67    1
    69    34    68    1
