@<TRIPOS>MOLECULE
IMPHY008458
 39 39 0 0 0
SMALL
GASTEIGER

@<TRIPOS>ATOM
      1 C           5.3320    0.9381    0.0000 C.3     1  UNL1       -0.0166
      2 C           6.2979    1.1969    0.0000 C.3     1  UNL1       -0.0441
      3 C           7.0050    0.4898    0.0000 C.3     1  UNL1       -0.0486
      4 C           6.9641   -0.5528    0.0000 C.3     1  UNL1       -0.0320
      5 C           4.4342    0.4975    0.0000 C.3     1  UNL1       -0.0563
      6 C           5.9594    0.1594    0.0000 C.3     1  UNL1       -0.0563
      7 C           4.4659    1.4381    0.0000 C.2     1  UNL1       -0.0781
      8 C           6.0981   -1.0528    0.0000 C.2     1  UNL1       -0.0765
      9 C           3.5000    1.1793    0.0000 C.2     1  UNL1       -0.0625
     10 C           4.3660   -1.0528    0.0000 C.3     1  UNL1       -0.0305
     11 C           3.5000   -0.5528    0.0000 C.3     1  UNL1       -0.0248
     12 C           5.2320   -0.5528    0.0000 C.2     1  UNL1       -0.0847
     13 C           3.0000    0.3132    0.0000 C.2     1  UNL1       -0.0544
     14 C           6.0981   -2.0528    0.0000 C.3     1  UNL1       -0.0438
     15 C           2.0000    0.3132    0.0000 C.2     1  UNL1       -0.0955
     16 H           6.8058    1.5525    0.0000 H       1  UNL1        0.0273
     17 H           6.0358    1.7588    0.0000 H       1  UNL1        0.0273
     18 H           7.5995    0.3137    0.0000 H       1  UNL1        0.0269
     19 H           7.3220    1.0226    0.0000 H       1  UNL1        0.0269
     20 H           7.1685   -1.1381    0.0000 H       1  UNL1        0.0310
     21 H           7.5773   -0.4611    0.0000 H       1  UNL1        0.0310
     22 H           5.4767   -0.2296    0.0000 H       1  UNL1        0.0238
     23 H           6.3484   -0.3233    0.0000 H       1  UNL1        0.0238
     24 H           6.4422    0.5485    0.0000 H       1  UNL1        0.0238
     25 H           4.1611    1.0541    0.0000 H       1  UNL1        0.0238
     26 H           3.8776    0.2244    0.0000 H       1  UNL1        0.0238
     27 H           4.7074   -0.0591    0.0000 H       1  UNL1        0.0238
     28 H           4.5468    2.0528    0.0000 H       1  UNL1        0.0578
     29 H           3.1226    1.6712    0.0000 H       1  UNL1        0.0617
     30 H           3.9675   -1.5277    0.0000 H       1  UNL1        0.0311
     31 H           4.7646   -1.5277    0.0000 H       1  UNL1        0.0311
     32 H           2.8894   -0.6604    0.0000 H       1  UNL1        0.0316
     33 H           3.9384   -0.1144    0.0000 H       1  UNL1        0.0316
     34 H           4.8335   -0.0778    0.0000 H       1  UNL1        0.0572
     35 H           5.4781   -2.0528    0.0000 H       1  UNL1        0.0274
     36 H           6.0981   -2.6728    0.0000 H       1  UNL1        0.0274
     37 H           6.7181   -2.0528    0.0000 H       1  UNL1        0.0274
     38 H           1.6900    0.8502    0.0000 H       1  UNL1        0.0537
     39 H           1.6900   -0.2237    0.0000 H       1  UNL1        0.0537
@<TRIPOS>BOND
     1     1     2    1
     2     1     5    1
     3     1     6    1
     4     1     7    1
     5     2     3    1
     6     2    16    1
     7     2    17    1
     8     3     4    1
     9     3    18    1
    10     3    19    1
    11     4     8    1
    12     4    20    1
    13     4    21    1
    14     5    25    1
    15     5    26    1
    16     5    27    1
    17     6    22    1
    18     6    23    1
    19     6    24    1
    20     7     9    2
    21     7    28    1
    22     8    12    2
    23     8    14    1
    24     9    13    1
    25     9    29    1
    26    10    11    1
    27    10    12    1
    28    10    30    1
    29    10    31    1
    30    11    13    1
    31    11    32    1
    32    11    33    1
    33    12    34    1
    34    13    15    2
    35    14    35    1
    36    14    36    1
    37    14    37    1
    38    15    38    1
    39    15    39    1
