@<TRIPOS>MOLECULE
IMPHY006047
 24 24 0 0 0
SMALL
GASTEIGER

@<TRIPOS>ATOM
      1 O           2.5586    0.0332    0.0000 O.3     1  UNL1       -0.4771
      2 O           3.3101   -1.5273    0.0000 O.2     1  UNL1       -0.2451
      3 C           6.4764    0.4038    0.0000 C.3     1  UNL1        0.0017
      4 C           7.3774   -0.0301    0.0000 C.3     1  UNL1       -0.0528
      5 C           7.3774    0.8377    0.0000 C.3     1  UNL1       -0.0528
      6 C           6.0426   -0.4972    0.0000 C.2     1  UNL1       -0.0739
      7 C           6.0426    1.3048    0.0000 C.2     1  UNL1       -0.0746
      8 C           5.0676   -0.7197    0.0000 C.2     1  UNL1       -0.0509
      9 C           5.0676    1.5273    0.0000 C.2     1  UNL1       -0.0641
     10 C           4.2858   -0.0962    0.0000 C.2     1  UNL1        0.0586
     11 C           4.2858    0.9038    0.0000 C.2     1  UNL1       -0.0481
     12 C           3.3848   -0.5301    0.0000 C.2     1  UNL1        0.3368
     13 H           7.1084   -0.5887    0.0000 H       1  UNL1        0.0241
     14 H           7.9360   -0.2991    0.0000 H       1  UNL1        0.0241
     15 H           7.6464    0.5285    0.0000 H       1  UNL1        0.0241
     16 H           7.6464    0.2791    0.0000 H       1  UNL1        0.0241
     17 H           7.9360    1.1067    0.0000 H       1  UNL1        0.0241
     18 H           7.1084    1.3963    0.0000 H       1  UNL1        0.0241
     19 H           6.4291   -0.9819    0.0000 H       1  UNL1        0.0581
     20 H           6.4291    1.7895    0.0000 H       1  UNL1        0.0580
     21 H           4.9297   -1.3242    0.0000 H       1  UNL1        0.0623
     22 H           4.9297    2.1317    0.0000 H       1  UNL1        0.0615
     23 H           3.7272    1.1728    0.0000 H       1  UNL1        0.0626
     24 H           2.0000   -0.2358    0.0000 H       1  UNL1        0.2954
@<TRIPOS>BOND
     1     1    12    1
     2     1    24    1
     3     2    12    2
     4     3     4    1
     5     3     5    1
     6     3     6    1
     7     3     7    1
     8     4    13    1
     9     4    14    1
    10     4    15    1
    11     5    16    1
    12     5    17    1
    13     5    18    1
    14     6     8    2
    15     6    19    1
    16     7     9    2
    17     7    20    1
    18     8    10    1
    19     8    21    1
    20     9    11    1
    21     9    22    1
    22    10    11    2
    23    10    12    1
    24    11    23    1
