@<TRIPOS>MOLECULE
IMPHY016671
 40 41 0 0 0
SMALL
GASTEIGER

@<TRIPOS>ATOM
      1 O           4.0982   -2.3924    0.0000 O.3     1  UNL1       -0.3907
      2 C           5.3742    0.8926    0.0000 C.3     1  UNL1       -0.0164
      3 C           6.3189    1.2020    0.0000 C.3     1  UNL1       -0.0370
      4 C           5.3792   -0.1074    0.0000 C.2     1  UNL1       -0.0648
      5 C           4.5893    1.5122    0.0000 C.3     1  UNL1       -0.0397
      6 C           6.9065    0.4002    0.0000 C.3     1  UNL1       -0.0462
      7 C           6.3269   -0.4074    0.0000 C.3     1  UNL1       -0.0309
      8 C           3.6155    1.2848    0.0000 C.3     1  UNL1       -0.0196
      9 C           4.6005   -0.7348    0.0000 C.2     1  UNL1       -0.0450
     10 C           3.1861    0.3817    0.0000 C.3     1  UNL1       -0.0427
     11 C           3.6244   -0.5171    0.0000 C.3     1  UNL1       -0.0288
     12 C           6.6248    2.1541    0.0000 C.3     1  UNL1       -0.0619
     13 C           2.9881    2.0635    0.0000 C.2     1  UNL1       -0.0766
     14 C           4.8278   -1.7086    0.0000 C.3     1  UNL1        0.0656
     15 C           2.0000    1.9095    0.0000 C.3     1  UNL1       -0.0438
     16 C           3.3488    2.9962    0.0000 C.2     1  UNL1       -0.0994
     17 H           5.4826    1.5030    0.0000 H       1  UNL1        0.0348
     18 H           5.8792    1.6392    0.0000 H       1  UNL1        0.0304
     19 H           5.0721    1.9011    0.0000 H       1  UNL1        0.0277
     20 H           4.3175    2.0694    0.0000 H       1  UNL1        0.0277
     21 H           7.3694   -0.0122    0.0000 H       1  UNL1        0.0271
     22 H           7.3653    0.8172    0.0000 H       1  UNL1        0.0271
     23 H           6.0787   -0.9756    0.0000 H       1  UNL1        0.0310
     24 H           6.8658   -0.7140    0.0000 H       1  UNL1        0.0310
     25 H           3.8173    1.8710    0.0000 H       1  UNL1        0.0346
     26 H           2.6994    0.7658    0.0000 H       1  UNL1        0.0274
     27 H           2.7033   -0.0073    0.0000 H       1  UNL1        0.0274
     28 H           3.0207   -0.6581    0.0000 H       1  UNL1        0.0311
     29 H           3.6275   -1.1371    0.0000 H       1  UNL1        0.0311
     30 H           7.2151    1.9644    0.0000 H       1  UNL1        0.0233
     31 H           6.8145    2.7444    0.0000 H       1  UNL1        0.0233
     32 H           6.0345    2.3438    0.0000 H       1  UNL1        0.0233
     33 H           5.1668   -2.2277    0.0000 H       1  UNL1        0.0604
     34 H           5.3980   -1.4649    0.0000 H       1  UNL1        0.0604
     35 H           1.9045    2.5221    0.0000 H       1  UNL1        0.0274
     36 H           1.3874    1.8141    0.0000 H       1  UNL1        0.0274
     37 H           2.0955    1.2969    0.0000 H       1  UNL1        0.0274
     38 H           3.9614    3.0916    0.0000 H       1  UNL1        0.0534
     39 H           2.9598    3.4790    0.0000 H       1  UNL1        0.0534
     40 H           4.2392   -2.9962    0.0000 H       1  UNL1        0.2098
@<TRIPOS>BOND
     1     1    14    1
     2     1    40    1
     3     2     3    1
     4     2     4    1
     5     2     5    1
     6     2    17    1
     7     3     6    1
     8     3    12    1
     9     3    18    1
    10     4     7    1
    11     4     9    2
    12     5     8    1
    13     5    19    1
    14     5    20    1
    15     6     7    1
    16     6    21    1
    17     6    22    1
    18     7    23    1
    19     7    24    1
    20     8    10    1
    21     8    13    1
    22     8    25    1
    23     9    11    1
    24     9    14    1
    25    10    11    1
    26    10    26    1
    27    10    27    1
    28    11    28    1
    29    11    29    1
    30    12    30    1
    31    12    31    1
    32    12    32    1
    33    13    15    1
    34    13    16    2
    35    14    33    1
    36    14    34    1
    37    15    35    1
    38    15    36    1
    39    15    37    1
    40    16    38    1
    41    16    39    1
