@<TRIPOS>MOLECULE
IMPHY014019
 43 42 0 0 0
SMALL
GASTEIGER

@<TRIPOS>ATOM
      1 O          13.2583   -0.1900    0.0000 O.3     1  UNL1       -0.3950
      2 C           8.0622   -0.1900    0.0000 C.3     1  UNL1       -0.0531
      3 C           8.9282   -0.6900    0.0000 C.3     1  UNL1       -0.0531
      4 C           7.1962   -0.6900    0.0000 C.3     1  UNL1       -0.0530
      5 C           9.7942   -0.1900    0.0000 C.3     1  UNL1       -0.0530
      6 C           6.3301   -0.1900    0.0000 C.3     1  UNL1       -0.0528
      7 C          10.6603   -0.6900    0.0000 C.3     1  UNL1       -0.0510
      8 C           5.4641   -0.6900    0.0000 C.3     1  UNL1       -0.0496
      9 C          11.5263   -0.1900    0.0000 C.3     1  UNL1       -0.0297
     10 C           4.5981   -0.1900    0.0000 C.3     1  UNL1       -0.0348
     11 C          12.3923   -0.6900    0.0000 C.3     1  UNL1        0.0442
     12 C           3.7320   -0.6900    0.0000 C.2     1  UNL1       -0.0879
     13 C           2.8660   -0.1900    0.0000 C.2     1  UNL1       -0.0882
     14 C           2.8660    0.8100    0.0000 C.3     1  UNL1       -0.0376
     15 C           2.0000    1.3100    0.0000 C.3     1  UNL1       -0.0618
     16 H           8.4607    0.2849    0.0000 H       1  UNL1        0.0265
     17 H           7.6636    0.2849    0.0000 H       1  UNL1        0.0265
     18 H           8.5297   -1.1650    0.0000 H       1  UNL1        0.0265
     19 H           9.3267   -1.1650    0.0000 H       1  UNL1        0.0265
     20 H           6.7976   -1.1650    0.0000 H       1  UNL1        0.0265
     21 H           7.5947   -1.1650    0.0000 H       1  UNL1        0.0265
     22 H          10.1928    0.2849    0.0000 H       1  UNL1        0.0265
     23 H           9.3957    0.2849    0.0000 H       1  UNL1        0.0265
     24 H           6.7287    0.2849    0.0000 H       1  UNL1        0.0265
     25 H           5.9316    0.2849    0.0000 H       1  UNL1        0.0265
     26 H          10.2617   -1.1650    0.0000 H       1  UNL1        0.0266
     27 H          11.0588   -1.1650    0.0000 H       1  UNL1        0.0266
     28 H           5.0656   -1.1650    0.0000 H       1  UNL1        0.0268
     29 H           5.8626   -1.1650    0.0000 H       1  UNL1        0.0268
     30 H          11.9248    0.2849    0.0000 H       1  UNL1        0.0287
     31 H          11.1278    0.2849    0.0000 H       1  UNL1        0.0287
     32 H           4.9966    0.2849    0.0000 H       1  UNL1        0.0307
     33 H           4.1996    0.2849    0.0000 H       1  UNL1        0.0307
     34 H          11.9938   -1.1650    0.0000 H       1  UNL1        0.0557
     35 H          12.7908   -1.1650    0.0000 H       1  UNL1        0.0557
     36 H           3.7320   -1.3100    0.0000 H       1  UNL1        0.0569
     37 H           2.3291   -0.5000    0.0000 H       1  UNL1        0.0569
     38 H           3.4766    0.7023    0.0000 H       1  UNL1        0.0305
     39 H           3.0781    1.3926    0.0000 H       1  UNL1        0.0305
     40 H          13.7953   -0.5000    0.0000 H       1  UNL1        0.2094
     41 H           2.3100    1.8469    0.0000 H       1  UNL1        0.0233
     42 H           1.4631    1.6200    0.0000 H       1  UNL1        0.0233
     43 H           1.6900    0.7731    0.0000 H       1  UNL1        0.0233
@<TRIPOS>BOND
     1     1    11    1
     2     1    40    1
     3     2     3    1
     4     2     4    1
     5     2    16    1
     6     2    17    1
     7     3     5    1
     8     3    18    1
     9     3    19    1
    10     4     6    1
    11     4    20    1
    12     4    21    1
    13     5     7    1
    14     5    22    1
    15     5    23    1
    16     6     8    1
    17     6    24    1
    18     6    25    1
    19     7     9    1
    20     7    26    1
    21     7    27    1
    22     8    10    1
    23     8    28    1
    24     8    29    1
    25     9    11    1
    26     9    30    1
    27     9    31    1
    28    10    12    1
    29    10    32    1
    30    10    33    1
    31    11    34    1
    32    11    35    1
    33    12    13    2
    34    12    36    1
    35    13    14    1
    36    13    37    1
    37    14    15    1
    38    14    38    1
    39    14    39    1
    40    15    41    1
    41    15    42    1
    42    15    43    1
