@<TRIPOS>MOLECULE
IMPHY013867
 27 28 0 0 0
SMALL
GASTEIGER

@<TRIPOS>ATOM
      1 O           5.8550    1.4102    0.0000 O.3     1  UNL1       -0.3901
      2 O           3.7320    1.6550    0.0000 O.3     1  UNL1       -0.3901
      3 O           2.0000   -1.3450    0.0000 O.3     1  UNL1       -0.3904
      4 N           4.5981   -0.8450    0.0000 N.3     1  UNL1       -0.2921
      5 C           4.5981    0.1550    0.0000 C.3     1  UNL1        0.0625
      6 C           5.5443    0.4597    0.0000 C.3     1  UNL1        0.0743
      7 C           3.7320    0.6550    0.0000 C.3     1  UNL1        0.0755
      8 C           5.5443   -1.1497    0.0000 C.3     1  UNL1        0.0018
      9 C           6.1279   -0.3450    0.0000 C.3     1  UNL1       -0.0125
     10 C           3.7320   -1.3450    0.0000 C.3     1  UNL1        0.0255
     11 C           2.8660    0.1550    0.0000 C.3     1  UNL1        0.0020
     12 C           2.8660   -0.8450    0.0000 C.3     1  UNL1        0.0703
     13 H           4.6880    1.0002    0.0000 H       1  UNL1        0.0513
     14 H           5.1068    0.8991    0.0000 H       1  UNL1        0.0610
     15 H           4.2690    0.9650    0.0000 H       1  UNL1        0.0610
     16 H           5.2933   -1.7166    0.0000 H       1  UNL1        0.0427
     17 H           6.0817   -1.4590    0.0000 H       1  UNL1        0.0427
     18 H           6.5888   -0.7597    0.0000 H       1  UNL1        0.0303
     19 H           6.5888    0.0697    0.0000 H       1  UNL1        0.0303
     20 H           3.3335   -1.8200    0.0000 H       1  UNL1        0.0452
     21 H           4.1306   -1.8200    0.0000 H       1  UNL1        0.0452
     22 H           2.6540    0.7376    0.0000 H       1  UNL1        0.0316
     23 H           2.2554    0.0473    0.0000 H       1  UNL1        0.0316
     24 H           2.8660   -1.4650    0.0000 H       1  UNL1        0.0607
     25 H           6.4616    1.5381    0.0000 H       1  UNL1        0.2098
     26 H           3.1951    1.9650    0.0000 H       1  UNL1        0.2098
     27 H           2.0000   -1.9650    0.0000 H       1  UNL1        0.2098
@<TRIPOS>BOND
     1     6     1    1
     2     1    25    1
     3     7     2    1
     4     2    26    1
     5    12     3    1
     6     3    27    1
     7     4     5    1
     8     4     8    1
     9     4    10    1
    10     5     6    1
    11     5     7    1
    12     5    13    1
    13     6     9    1
    14     6    14    1
    15     7    11    1
    16     7    15    1
    17     8     9    1
    18     8    16    1
    19     8    17    1
    20     9    18    1
    21     9    19    1
    22    10    12    1
    23    10    20    1
    24    10    21    1
    25    11    12    1
    26    11    22    1
    27    11    23    1
    28    12    24    1
