@<TRIPOS>MOLECULE
IMPHY002389
 34 38 0 0 0
SMALL
GASTEIGER

@<TRIPOS>ATOM
      1 C        2562.2000 2422.6100    0.0000 C.3     1  UNL1        0.1824
      2 O        2596.8400 2402.6600    0.0000 O.3     1  UNL1       -0.2204
      3 C        2551.8700 2461.2300    0.0000 C.3     1  UNL1        0.0381
      4 C        2517.3200 2441.0800    0.0000 C.3     1  UNL1        0.0028
      5 C        2517.3200 2481.0900    0.0000 C.3     1  UNL1        0.0001
      6 C        2482.7800 2461.2300    0.0000 C.3     1  UNL1        0.0001
      7 C        2448.2300 2441.0800    0.0000 C.3     1  UNL1        0.0002
      8 C        2448.2300 2481.0900    0.0000 C.3     1  UNL1        0.0000
      9 C        2448.2300 2400.7700    0.0000 C.3     1  UNL1        0.0024
     10 C        2482.7800 2380.6200    0.0000 C.3     1  UNL1        0.0001
     11 C        2517.3200 2400.7700    0.0000 C.3     1  UNL1        0.0001
     12 C        2413.6800 2380.6200    0.0000 C.3     1  UNL1        0.0282
     13 C        2387.8700 2349.9400    0.0000 C.3     1  UNL1        0.0025
     14 C        2439.3900 2349.9400    0.0000 C.3     1  UNL1        0.0025
     15 C        2379.0300 2400.7700    0.0000 C.3     1  UNL1        0.1519
     16 C        2379.0300 2441.0800    0.0000 C.3     1  UNL1        0.0329
     17 C        2413.6800 2461.2300    0.0000 C.3     1  UNL1        0.0026
     18 O        2344.3800 2380.8200    0.0000 O.3     1  UNL1       -0.2232
     19 C        2482.7800 2501.6400    0.0000 C.3     1  UNL1        0.0000
     20 C        2517.3200 2521.7900    0.0000 C.3     1  UNL1        0.0006
     21 C        2551.8700 2501.6400    0.0000 C.3     1  UNL1        0.0124
     22 C        2586.4200 2521.7900    0.0000 C.3     1  UNL1        0.0861
     23 C        2620.9700 2501.6400    0.0000 C.2     1  UNL1        0.1529
     24 C        2620.9700 2461.2300    0.0000 C.3     1  UNL1        0.0671
     25 O        2655.6200 2521.5900    0.0000 O.2     1  UNL1       -0.2960
     26 C        2586.3200 2572.8200    0.0000 C.3     1  UNL1        0.1143
     27 C        2550.6800 2554.6500    0.0000 C.3     1  UNL1        0.0343
     28 C        2554.6500 2597.3400    0.0000 C.2     1  UNL1       -0.0215
     29 C        2516.2300 2586.2200    0.0000 C.3     1  UNL1        0.0285
     30 C        2567.6600 2634.7700    0.0000 C.2     1  UNL1       -0.0060
     31 C        2607.9600 2634.7700    0.0000 C.3     1  UNL1        0.1110
     32 O        2619.4800 2597.3400    0.0000 O.3     1  UNL1       -0.3551
     33 C        2603.7900 2674.4800    0.0000 C.3     1  UNL1        0.0342
     34 C        2647.0800 2643.0100    0.0000 C.3     1  UNL1        0.0342
@<TRIPOS>BOND
     1     1     2    1
     2     3     1    1
     3     3     4    1
     4     3    21    1
     5     3    24    1
     6     4     5    1
     7     4     6    1
     8     4    11    1
     9     6     7    1
    10     6    19    1
    11     7     8    1
    12     7     9    1
    13     7    17    1
    14     9    12    1
    15     9    10    1
    16    11    10    1
    17    12    13    1
    18    12    14    1
    19    12    15    1
    20    15    18    1
    21    16    15    1
    22    17    16    1
    23    20    19    1
    24    21    20    1
    25    21    22    1
    26    22    23    1
    27    22    26    1
    28    23    25    2
    29    24    23    1
    30    26    27    1
    31    26    28    1
    32    26    32    1
    33    28    29    1
    34    28    30    2
    35    30    31    1
    36    31    33    1
    37    31    34    1
    38    32    31    1
