@<TRIPOS>MOLECULE
IMPHY006134
 78 83 0 0 0
SMALL
GASTEIGER

@<TRIPOS>ATOM
      1 O           9.9650    1.7839    0.0000 O.3     1  UNL1       -0.3672
      2 O           7.8363    3.7757    0.0000 O.3     1  UNL1       -0.4587
      3 O          10.2270    3.4470    0.0000 O.3     1  UNL1       -0.3817
      4 O           9.5407   -0.3113    0.0000 O.3     1  UNL1       -0.3888
      5 O          11.2842    0.6686    0.0000 O.3     1  UNL1       -0.3863
      6 O          10.5045    4.1858    0.0000 O.3     1  UNL1       -0.3781
      7 O           8.6744   -0.9039    0.0000 O.3     1  UNL1       -0.3883
      8 O           6.8671   -1.9567    0.0000 O.3     1  UNL1       -0.3388
      9 O           8.7754    5.2667    0.0000 O.2     1  UNL1       -0.2478
     10 O           5.1350   -1.9567    0.0000 O.3     1  UNL1       -0.3405
     11 O           6.8671   -3.9567    0.0000 O.3     1  UNL1       -0.3841
     12 O           5.1350   -4.9567    0.0000 O.3     1  UNL1       -0.3864
     13 O           3.4030   -3.9567    0.0000 O.3     1  UNL1       -0.3865
     14 O           2.5369   -2.4567    0.0000 O.3     1  UNL1       -0.3924
     15 C           8.7037    2.1985    0.0000 C.3     1  UNL1        0.0713
     16 C           8.6921    1.1986    0.0000 C.3     1  UNL1        0.0099
     17 C           9.5754    2.6885    0.0000 C.3     1  UNL1        0.1444
     18 C           7.7920    0.6743    0.0000 C.3     1  UNL1        0.0093
     19 C          10.4356    2.1785    0.0000 C.3     1  UNL1        0.1270
     20 C           7.8160    2.7435    0.0000 C.3     1  UNL1        0.1146
     21 C           9.5523    0.6886    0.0000 C.3     1  UNL1        0.0880
     22 C           6.8920    1.1986    0.0000 C.3     1  UNL1       -0.0085
     23 C           9.1651    1.7932    0.0000 C.3     1  UNL1        0.0608
     24 C          10.4241    1.1786    0.0000 C.3     1  UNL1        0.1127
     25 C           6.9040    2.2402    0.0000 C.3     1  UNL1       -0.0078
     26 C           9.6196    3.7199    0.0000 C.3     1  UNL1        0.1839
     27 C           7.8046   -0.4106    0.0000 C.3     1  UNL1        0.0912
     28 C           8.4319   -0.0942    0.0000 C.3     1  UNL1       -0.0562
     29 C          11.4355    2.1669    0.0000 C.3     1  UNL1       -0.0304
     30 C           5.9421    0.6743    0.0000 C.2     1  UNL1       -0.0702
     31 C           6.8671   -0.9567    0.0000 C.3     1  UNL1        0.1065
     32 C           8.7442    4.2672    0.0000 C.2     1  UNL1        0.3393
     33 C           5.9295   -0.4106    0.0000 C.2     1  UNL1       -0.0538
     34 C           5.0839    1.1876    0.0000 C.3     1  UNL1       -0.0434
     35 C           6.0010   -2.4567    0.0000 C.3     1  UNL1        0.1887
     36 C           6.0010   -3.4567    0.0000 C.3     1  UNL1        0.1341
     37 C           5.1350   -3.9567    0.0000 C.3     1  UNL1        0.1141
     38 C           4.2690   -2.4567    0.0000 C.3     1  UNL1        0.1130
     39 C           4.2690   -3.4567    0.0000 C.3     1  UNL1        0.1119
     40 C           3.4030   -1.9567    0.0000 C.3     1  UNL1        0.0730
     41 H           8.6823    0.3487    0.0000 H       1  UNL1        0.0341
     42 H           7.0883    3.1828    0.0000 H       1  UNL1        0.0741
     43 H          10.0856    0.3724    0.0000 H       1  UNL1        0.0623
     44 H           6.1625    1.6349    0.0000 H       1  UNL1        0.0353
     45 H           8.6407    1.4624    0.0000 H       1  UNL1        0.0568
     46 H           9.3338    1.1966    0.0000 H       1  UNL1        0.0568
     47 H          10.9645    1.4823    0.0000 H       1  UNL1        0.0649
     48 H           6.7017    2.8262    0.0000 H       1  UNL1        0.0307
     49 H           6.2920    2.1411    0.0000 H       1  UNL1        0.0307
     50 H           9.6426    4.3395    0.0000 H       1  UNL1        0.0741
     51 H           7.8082   -1.0306    0.0000 H       1  UNL1        0.0628
     52 H           7.9554   -0.4909    0.0000 H       1  UNL1        0.0236
     53 H           8.8286   -0.5707    0.0000 H       1  UNL1        0.0236
     54 H           8.9084    0.3025    0.0000 H       1  UNL1        0.0236
     55 H          11.4284    1.5470    0.0000 H       1  UNL1        0.0259
     56 H          12.0555    2.1598    0.0000 H       1  UNL1        0.0259
     57 H          11.4427    2.7869    0.0000 H       1  UNL1        0.0259
     58 H           7.4046   -1.2657    0.0000 H       1  UNL1        0.0668
     59 H          10.8363    3.3323    0.0000 H       1  UNL1        0.2104
     60 H           5.3902   -0.7165    0.0000 H       1  UNL1        0.0598
     61 H          10.0741   -0.6275    0.0000 H       1  UNL1        0.2099
     62 H          11.8247    0.9724    0.0000 H       1  UNL1        0.2100
     63 H          10.5286    4.8054    0.0000 H       1  UNL1        0.2106
     64 H           8.6792   -1.5239    0.0000 H       1  UNL1        0.2099
     65 H           5.4021    1.7197    0.0000 H       1  UNL1        0.0274
     66 H           4.5518    1.5058    0.0000 H       1  UNL1        0.0274
     67 H           4.7656    0.6555    0.0000 H       1  UNL1        0.0274
     68 H           6.0010   -1.8367    0.0000 H       1  UNL1        0.0938
     69 H           6.0010   -4.0767    0.0000 H       1  UNL1        0.0671
     70 H           4.5981   -4.2667    0.0000 H       1  UNL1        0.0648
     71 H           4.2690   -1.8367    0.0000 H       1  UNL1        0.0647
     72 H           3.7320   -3.1467    0.0000 H       1  UNL1        0.0647
     73 H           6.8671   -4.5767    0.0000 H       1  UNL1        0.2101
     74 H           3.8015   -1.4818    0.0000 H       1  UNL1        0.0584
     75 H           3.0044   -1.4818    0.0000 H       1  UNL1        0.0584
     76 H           4.5981   -5.2667    0.0000 H       1  UNL1        0.2100
     77 H           3.4030   -4.5767    0.0000 H       1  UNL1        0.2100
     78 H           2.0000   -2.1467    0.0000 H       1  UNL1        0.2095
@<TRIPOS>BOND
     1     1    19    1
     2     1    23    1
     3     2    20    1
     4     2    32    1
     5    17     3    1
     6     3    59    1
     7    21     4    1
     8     4    61    1
     9    24     5    1
    10     5    62    1
    11    26     6    1
    12     6    63    1
    13    27     7    1
    14     7    64    1
    15    31     8    1
    16    35     8    1
    17     9    32    2
    18    10    35    1
    19    10    38    1
    20    36    11    1
    21    11    73    1
    22    37    12    1
    23    12    76    1
    24    39    13    1
    25    13    77    1
    26    14    40    1
    27    14    78    1
    28    15    16    1
    29    15    17    1
    30    15    20    1
    31    15    23    1
    32    16    18    1
    33    16    21    1
    34    16    41    1
    35    17    19    1
    36    17    26    1
    37    18    22    1
    38    18    27    1
    39    18    28    1
    40    19    24    1
    41    19    29    1
    42    20    25    1
    43    20    42    1
    44    21    24    1
    45    21    43    1
    46    22    25    1
    47    22    30    1
    48    22    44    1
    49    23    45    1
    50    23    46    1
    51    24    47    1
    52    25    48    1
    53    25    49    1
    54    26    32    1
    55    26    50    1
    56    27    31    1
    57    27    51    1
    58    28    52    1
    59    28    53    1
    60    28    54    1
    61    29    55    1
    62    29    56    1
    63    29    57    1
    64    30    33    2
    65    30    34    1
    66    31    33    1
    67    31    58    1
    68    33    60    1
    69    34    65    1
    70    34    66    1
    71    34    67    1
    72    35    36    1
    73    35    68    1
    74    36    37    1
    75    36    69    1
    76    37    39    1
    77    37    70    1
    78    38    39    1
    79    38    40    1
    80    38    71    1
    81    39    72    1
    82    40    74    1
    83    40    75    1
