@<TRIPOS>MOLECULE
IMPHY017252
 20 19 0 0 0
SMALL
GASTEIGER

@<TRIPOS>ATOM
      1 O           3.7320    0.7500    0.0000 O.3     1  UNL1       -0.4645
      2 O           7.1962    0.7500    0.0000 O.3     1  UNL1       -0.4675
      3 O           4.5981   -0.7500    0.0000 O.2     1  UNL1       -0.2502
      4 O           6.3301   -0.7500    0.0000 O.2     1  UNL1       -0.2503
      5 C           5.4641    0.7500    0.0000 C.3     1  UNL1        0.1419
      6 C           2.8660    0.2500    0.0000 C.3     1  UNL1        0.0897
      7 C           4.5981    0.2500    0.0000 C.2     1  UNL1        0.3179
      8 C           2.0000    0.7500    0.0000 C.3     1  UNL1       -0.0306
      9 C           6.3301    0.2500    0.0000 C.2     1  UNL1        0.3177
     10 C           8.0622    0.2500    0.0000 C.3     1  UNL1        0.0817
     11 H           5.8626    1.2250    0.0000 H       1  UNL1        0.0493
     12 H           5.0656    1.2250    0.0000 H       1  UNL1        0.0493
     13 H           2.4675   -0.2249    0.0000 H       1  UNL1        0.0694
     14 H           3.2646   -0.2249    0.0000 H       1  UNL1        0.0694
     15 H           2.3100    1.2869    0.0000 H       1  UNL1        0.0262
     16 H           1.4631    1.0600    0.0000 H       1  UNL1        0.0262
     17 H           1.6900    0.2131    0.0000 H       1  UNL1        0.0262
     18 H           7.7522   -0.2869    0.0000 H       1  UNL1        0.0661
     19 H           8.5991   -0.0600    0.0000 H       1  UNL1        0.0661
     20 H           8.3722    0.7869    0.0000 H       1  UNL1        0.0661
@<TRIPOS>BOND
     1     1     6    1
     2     1     7    1
     3     2     9    1
     4     2    10    1
     5     3     7    2
     6     4     9    2
     7     5     7    1
     8     5     9    1
     9     5    11    1
    10     5    12    1
    11     6     8    1
    12     6    13    1
    13     6    14    1
    14     8    15    1
    15     8    16    1
    16     8    17    1
    17    10    18    1
    18    10    19    1
    19    10    20    1
