@<TRIPOS>MOLECULE
IMPHY010189
 52 52 0 0 0
SMALL
GASTEIGER

@<TRIPOS>ATOM
      1 C           5.6200    1.2990    0.0000 C.3     1  UNL1       -0.0200
      2 C           6.1200    2.1651    0.0000 C.3     1  UNL1       -0.0404
      3 C           6.1200    0.4330    0.0000 C.3     1  UNL1       -0.0428
      4 C           7.1200    0.4330    0.0000 C.3     1  UNL1       -0.0315
      5 C           4.6200    1.2990    0.0000 C.2     1  UNL1       -0.0804
      6 C           5.6200    3.0311    0.0000 C.3     1  UNL1       -0.0621
      7 C           7.1200    2.1651    0.0000 C.3     1  UNL1       -0.0621
      8 C           7.6200   -0.4330    0.0000 C.2     1  UNL1       -0.0765
      9 C           4.1200    0.4330    0.0000 C.2     1  UNL1       -0.0628
     10 C           7.1200   -1.2990    0.0000 C.2     1  UNL1       -0.0847
     11 C           6.1200   -1.2990    0.0000 C.3     1  UNL1       -0.0308
     12 C           8.6200   -0.4330    0.0000 C.3     1  UNL1       -0.0438
     13 C           5.6200   -2.1651    0.0000 C.3     1  UNL1       -0.0286
     14 C           3.1200    0.4330    0.0000 C.2     1  UNL1       -0.0544
     15 C           4.6200   -2.1651    0.0000 C.2     1  UNL1       -0.0759
     16 C           3.1200   -1.2990    0.0000 C.3     1  UNL1       -0.0158
     17 C           2.6200   -0.4330    0.0000 C.2     1  UNL1       -0.0774
     18 C           4.1200   -1.2990    0.0000 C.2     1  UNL1       -0.0813
     19 C           2.6200    1.2990    0.0000 C.3     1  UNL1       -0.0400
     20 C           4.1200   -3.0311    0.0000 C.3     1  UNL1       -0.0438
     21 H           6.2400    1.2990    0.0000 H       1  UNL1        0.0346
     22 H           6.4300    2.7020    0.0000 H       1  UNL1        0.0301
     23 H           5.5374    0.2210    0.0000 H       1  UNL1        0.0274
     24 H           6.2277   -0.1776    0.0000 H       1  UNL1        0.0274
     25 H           7.7026    0.6451    0.0000 H       1  UNL1        0.0310
     26 H           7.0123    1.0436    0.0000 H       1  UNL1        0.0310
     27 H           4.3100    1.8360    0.0000 H       1  UNL1        0.0575
     28 H           7.1200    1.5451    0.0000 H       1  UNL1        0.0233
     29 H           7.7400    2.1651    0.0000 H       1  UNL1        0.0233
     30 H           7.1200    2.7851    0.0000 H       1  UNL1        0.0233
     31 H           6.1569    3.3411    0.0000 H       1  UNL1        0.0233
     32 H           5.3100    3.5680    0.0000 H       1  UNL1        0.0233
     33 H           5.0831    2.7211    0.0000 H       1  UNL1        0.0233
     34 H           7.4300   -1.8360    0.0000 H       1  UNL1        0.0572
     35 H           4.4300   -0.1039    0.0000 H       1  UNL1        0.0617
     36 H           6.2277   -0.6885    0.0000 H       1  UNL1        0.0310
     37 H           5.5374   -1.0870    0.0000 H       1  UNL1        0.0310
     38 H           8.6200   -1.0530    0.0000 H       1  UNL1        0.0274
     39 H           9.2400   -0.4330    0.0000 H       1  UNL1        0.0274
     40 H           8.6200    0.1870    0.0000 H       1  UNL1        0.0274
     41 H           5.5123   -2.7756    0.0000 H       1  UNL1        0.0313
     42 H           6.2026   -2.3771    0.0000 H       1  UNL1        0.0313
     43 H           2.5374   -1.5111    0.0000 H       1  UNL1        0.0350
     44 H           3.2277   -1.9096    0.0000 H       1  UNL1        0.0350
     45 H           2.0000   -0.4330    0.0000 H       1  UNL1        0.0578
     46 H           4.4300   -0.7621    0.0000 H       1  UNL1        0.0575
     47 H           3.1569    1.6090    0.0000 H       1  UNL1        0.0277
     48 H           2.3100    1.8360    0.0000 H       1  UNL1        0.0277
     49 H           2.0831    0.9890    0.0000 H       1  UNL1        0.0277
     50 H           3.5831   -2.7211    0.0000 H       1  UNL1        0.0274
     51 H           3.8100   -3.5680    0.0000 H       1  UNL1        0.0274
     52 H           4.6569   -3.3411    0.0000 H       1  UNL1        0.0274
@<TRIPOS>BOND
     1     1     2    1
     2     1     3    1
     3     1     5    1
     4     1    21    1
     5     2     6    1
     6     2     7    1
     7     2    22    1
     8     3     4    1
     9     3    23    1
    10     3    24    1
    11     4     8    1
    12     4    25    1
    13     4    26    1
    14     5     9    2
    15     5    27    1
    16     6    31    1
    17     6    32    1
    18     6    33    1
    19     7    28    1
    20     7    29    1
    21     7    30    1
    22     8    10    2
    23     8    12    1
    24     9    14    1
    25     9    35    1
    26    10    11    1
    27    10    34    1
    28    11    13    1
    29    11    36    1
    30    11    37    1
    31    12    38    1
    32    12    39    1
    33    12    40    1
    34    13    15    1
    35    13    41    1
    36    13    42    1
    37    14    17    2
    38    14    19    1
    39    15    18    2
    40    15    20    1
    41    16    17    1
    42    16    18    1
    43    16    43    1
    44    16    44    1
    45    17    45    1
    46    18    46    1
    47    19    47    1
    48    19    48    1
    49    19    49    1
    50    20    50    1
    51    20    51    1
    52    20    52    1
