@<TRIPOS>MOLECULE
IMPHY004414
 26 25 0 0 0
SMALL
GASTEIGER

@<TRIPOS>ATOM
      1 C           6.3301    0.4400    0.0000 C.3     1  UNL1       -0.0288
      2 C           5.4641   -0.0600    0.0000 C.3     1  UNL1       -0.0306
      3 C           7.1962   -0.0600    0.0000 C.2     1  UNL1       -0.0794
      4 C           4.5981    0.4400    0.0000 C.2     1  UNL1       -0.0808
      5 C           3.7320   -0.0600    0.0000 C.2     1  UNL1       -0.0549
      6 C           8.0622    0.4400    0.0000 C.3     1  UNL1       -0.0440
      7 C           3.7320   -1.0600    0.0000 C.3     1  UNL1       -0.0400
      8 C           7.1962   -1.0600    0.0000 C.2     1  UNL1       -0.0997
      9 C           2.8660    0.4400    0.0000 C.2     1  UNL1       -0.0662
     10 C           2.0000   -0.0600    0.0000 C.2     1  UNL1       -0.0985
     11 H           6.7287    0.9149    0.0000 H       1  UNL1        0.0313
     12 H           5.9316    0.9149    0.0000 H       1  UNL1        0.0313
     13 H           5.0656   -0.5349    0.0000 H       1  UNL1        0.0311
     14 H           5.8626   -0.5349    0.0000 H       1  UNL1        0.0311
     15 H           4.5981    1.0600    0.0000 H       1  UNL1        0.0575
     16 H           8.3722   -0.0969    0.0000 H       1  UNL1        0.0274
     17 H           8.5991    0.7500    0.0000 H       1  UNL1        0.0274
     18 H           7.7522    0.9769    0.0000 H       1  UNL1        0.0274
     19 H           3.1120   -1.0600    0.0000 H       1  UNL1        0.0277
     20 H           3.7320   -1.6800    0.0000 H       1  UNL1        0.0277
     21 H           4.3520   -1.0600    0.0000 H       1  UNL1        0.0277
     22 H           6.6592   -1.3700    0.0000 H       1  UNL1        0.0534
     23 H           7.7331   -1.3700    0.0000 H       1  UNL1        0.0534
     24 H           2.8660    1.0600    0.0000 H       1  UNL1        0.0614
     25 H           1.4631    0.2500    0.0000 H       1  UNL1        0.0535
     26 H           2.0000   -0.6800    0.0000 H       1  UNL1        0.0535
@<TRIPOS>BOND
     1     1     2    1
     2     1     3    1
     3     1    11    1
     4     1    12    1
     5     2     4    1
     6     2    13    1
     7     2    14    1
     8     3     6    1
     9     3     8    2
    10     4     5    2
    11     4    15    1
    12     5     7    1
    13     5     9    1
    14     6    16    1
    15     6    17    1
    16     6    18    1
    17     7    19    1
    18     7    20    1
    19     7    21    1
    20     8    22    1
    21     8    23    1
    22     9    10    2
    23     9    24    1
    24    10    25    1
    25    10    26    1
