@<TRIPOS>MOLECULE
IMPHY007165
 39 40 0 0 0
SMALL
GASTEIGER

@<TRIPOS>ATOM
      1 O           3.6942    1.0878    0.0000 O.2     1  UNL1       -0.4672
      2 O           2.5352    0.1994    0.0000 O.2     1  UNL1       -0.2974
      3 C           4.5032   -0.5000    0.0000 C.3     1  UNL1        0.0295
      4 C           5.3122   -1.0878    0.0000 C.3     1  UNL1       -0.0335
      5 C           3.6942   -1.0878    0.0000 C.3     1  UNL1        0.0271
      6 C           5.0032   -2.0388    0.0000 C.3     1  UNL1       -0.0491
      7 C           4.0032   -2.0388    0.0000 C.3     1  UNL1       -0.0426
      8 C           4.5032    0.5000    0.0000 C.ar    1  UNL1        0.1122
      9 C           6.2633   -0.7788    0.0000 C.3     1  UNL1       -0.0617
     10 C           2.7431   -0.7788    0.0000 C.2     1  UNL1        0.1340
     11 C           5.3122    1.0878    0.0000 C.ar    1  UNL1       -0.0036
     12 C           6.2633    0.7788    0.0000 C.3     1  UNL1       -0.0183
     13 C           2.0000   -1.4479    0.0000 C.3     1  UNL1       -0.0058
     14 C           5.0032    2.0388    0.0000 C.ar    1  UNL1       -0.0202
     15 C           4.0032    2.0388    0.0000 C.ar    1  UNL1        0.0924
     16 C           7.0064    1.4479    0.0000 C.3     1  UNL1       -0.0585
     17 C           6.4712   -0.1994    0.0000 C.3     1  UNL1       -0.0585
     18 H           3.7459   -0.1141    0.0000 H       1  UNL1        0.0389
     19 H           5.7506   -1.5262    0.0000 H       1  UNL1        0.0305
     20 H           3.2558   -1.5262    0.0000 H       1  UNL1        0.0384
     21 H           4.9384   -2.6554    0.0000 H       1  UNL1        0.0268
     22 H           5.6097   -2.1678    0.0000 H       1  UNL1        0.0268
     23 H           3.3968   -2.1678    0.0000 H       1  UNL1        0.0272
     24 H           4.0680   -2.6554    0.0000 H       1  UNL1        0.0272
     25 H           6.4549   -1.3684    0.0000 H       1  UNL1        0.0233
     26 H           6.8530   -0.5872    0.0000 H       1  UNL1        0.0233
     27 H           6.0717   -0.1891    0.0000 H       1  UNL1        0.0233
     28 H           6.8530    0.5872    0.0000 H       1  UNL1        0.0345
     29 H           1.5851   -0.9871    0.0000 H       1  UNL1        0.0306
     30 H           1.5392   -1.8628    0.0000 H       1  UNL1        0.0306
     31 H           2.4149   -1.9086    0.0000 H       1  UNL1        0.0306
     32 H           5.3676    2.5404    0.0000 H       1  UNL1        0.0652
     33 H           3.6388    2.5404    0.0000 H       1  UNL1        0.1029
     34 H           7.4213    0.9871    0.0000 H       1  UNL1        0.0235
     35 H           7.4672    1.8628    0.0000 H       1  UNL1        0.0235
     36 H           6.5916    1.9086    0.0000 H       1  UNL1        0.0235
     37 H           5.8648   -0.3283    0.0000 H       1  UNL1        0.0235
     38 H           6.6001   -0.8058    0.0000 H       1  UNL1        0.0235
     39 H           7.0776   -0.0705    0.0000 H       1  UNL1        0.0235
@<TRIPOS>BOND
     1     1     8   ar
     2     1    15   ar
     3     2    10    2
     4     3     4    1
     5     3     5    1
     6     3     8    1
     7     3    18    1
     8     4     6    1
     9     4     9    1
    10     4    19    1
    11     5     7    1
    12     5    10    1
    13     5    20    1
    14     6     7    1
    15     6    21    1
    16     6    22    1
    17     7    23    1
    18     7    24    1
    19     8    11   ar
    20     9    25    1
    21     9    26    1
    22     9    27    1
    23    10    13    1
    24    11    12    1
    25    11    14   ar
    26    12    16    1
    27    12    17    1
    28    12    28    1
    29    13    29    1
    30    13    30    1
    31    13    31    1
    32    14    15   ar
    33    14    32    1
    34    15    33    1
    35    16    34    1
    36    16    35    1
    37    16    36    1
    38    17    37    1
    39    17    38    1
    40    17    39    1
