@<TRIPOS>MOLECULE
IMPHY006993
 31 31 0 0 0
SMALL
GASTEIGER

@<TRIPOS>ATOM
      1 O           4.5981   -3.0600    0.0000 O.3     1  UNL1       -0.4885
      2 O           2.8660   -2.0600    0.0000 O.3     1  UNL1       -0.4913
      3 O           6.3301   -2.0600    0.0000 O.3     1  UNL1       -0.4913
      4 O           6.3301    2.9400    0.0000 O.3     1  UNL1       -0.4775
      5 O           4.5981    2.9400    0.0000 O.2     1  UNL1       -0.2458
      6 C           4.5981   -0.0600    0.0000 C.ar    1  UNL1       -0.0177
      7 C           4.5981   -2.0600    0.0000 C.ar    1  UNL1        0.2035
      8 C           3.7320   -1.5600    0.0000 C.ar    1  UNL1        0.1657
      9 C           5.4641   -1.5600    0.0000 C.ar    1  UNL1        0.1657
     10 C           3.7320   -0.5600    0.0000 C.ar    1  UNL1       -0.0089
     11 C           5.4641   -0.5600    0.0000 C.ar    1  UNL1       -0.0089
     12 C           4.5981    0.9400    0.0000 C.2     1  UNL1       -0.0476
     13 C           5.4641    1.4400    0.0000 C.2     1  UNL1        0.0229
     14 C           3.7320   -3.5600    0.0000 C.3     1  UNL1        0.0791
     15 C           2.0000   -1.5600    0.0000 C.3     1  UNL1        0.0790
     16 C           7.1962   -1.5600    0.0000 C.3     1  UNL1        0.0790
     17 C           5.4641    2.4400    0.0000 C.2     1  UNL1        0.3296
     18 H           3.1951   -0.2500    0.0000 H       1  UNL1        0.0661
     19 H           6.0010   -0.2500    0.0000 H       1  UNL1        0.0661
     20 H           4.0611    1.2500    0.0000 H       1  UNL1        0.0626
     21 H           6.0010    1.1300    0.0000 H       1  UNL1        0.0689
     22 H           3.4220   -3.0231    0.0000 H       1  UNL1        0.0660
     23 H           3.1951   -3.8700    0.0000 H       1  UNL1        0.0660
     24 H           4.0420   -4.0969    0.0000 H       1  UNL1        0.0660
     25 H           2.3100   -1.0231    0.0000 H       1  UNL1        0.0660
     26 H           1.4631   -1.2500    0.0000 H       1  UNL1        0.0660
     27 H           1.6900   -2.0969    0.0000 H       1  UNL1        0.0660
     28 H           7.5062   -2.0969    0.0000 H       1  UNL1        0.0660
     29 H           7.7331   -1.2500    0.0000 H       1  UNL1        0.0660
     30 H           6.8862   -1.0231    0.0000 H       1  UNL1        0.0660
     31 H           6.3301    3.5600    0.0000 H       1  UNL1        0.2954
@<TRIPOS>BOND
     1     1     7    1
     2     1    14    1
     3     2     8    1
     4     2    15    1
     5     3     9    1
     6     3    16    1
     7     4    17    1
     8     4    31    1
     9     5    17    2
    10     6    10   ar
    11     6    11   ar
    12     6    12    1
    13     7     8   ar
    14     7     9   ar
    15     8    10   ar
    16     9    11   ar
    17    10    18    1
    18    11    19    1
    19    12    13    2
    20    12    20    1
    21    13    17    1
    22    13    21    1
    23    14    22    1
    24    14    23    1
    25    14    24    1
    26    15    25    1
    27    15    26    1
    28    15    27    1
    29    16    28    1
    30    16    29    1
    31    16    30    1
