@<TRIPOS>MOLECULE
IMPHY001476
 47 50 0 0 0
SMALL
GASTEIGER

@<TRIPOS>ATOM
      1 O           7.2762   -2.2675    0.0000 O.2     1  UNL1       -0.4967
      2 O           9.0501   -1.2434    0.0000 O.3     1  UNL1       -0.3801
      3 O           4.6497   -0.7328    0.0000 O.3     1  UNL1       -0.5031
      4 O           2.8680    0.2776    0.0000 O.3     1  UNL1       -0.4914
      5 N           6.8422    1.7927    0.0000 N.3     1  UNL1       -0.2984
      6 C           6.3981    0.3018    0.0000 C.3     1  UNL1        0.0446
      7 C           7.2641    1.8018    0.0000 C.3     1  UNL1        0.0365
      8 C           7.2641    0.8018    0.0000 C.2     1  UNL1       -0.0388
      9 C           6.1950    0.6717    0.0000 C.3     1  UNL1       -0.0230
     10 C           5.5320    0.8018    0.0000 C.ar    1  UNL1        0.0150
     11 C           6.3981    2.3018    0.0000 C.3     1  UNL1       -0.0077
     12 C           6.1114    1.4673    0.0000 C.3     1  UNL1        0.0006
     13 C           5.5320    1.8018    0.0000 C.ar    1  UNL1       -0.0376
     14 C           6.3820   -0.7398    0.0000 C.2     1  UNL1       -0.0289
     15 C           8.1741    0.2949    0.0000 C.2     1  UNL1       -0.0467
     16 C           8.1821   -0.7467    0.0000 C.3     1  UNL1        0.1302
     17 C           7.2800   -1.2675    0.0000 C.2     1  UNL1        0.1267
     18 C           4.6381    0.2671    0.0000 C.ar    1  UNL1        0.1631
     19 C           7.0501    2.7708    0.0000 C.3     1  UNL1       -0.0122
     20 C           4.6381    2.3364    0.0000 C.ar    1  UNL1       -0.0545
     21 C           3.7320    0.7809    0.0000 C.ar    1  UNL1        0.1616
     22 C           3.7320    1.8226    0.0000 C.ar    1  UNL1       -0.0160
     23 C           8.1403   -2.7708    0.0000 C.3     1  UNL1        0.0785
     24 C           2.0000    0.7743    0.0000 C.3     1  UNL1        0.0790
     25 H           7.6891    2.5379    0.0000 H       1  UNL1        0.0512
     26 H           5.6002    0.8468    0.0000 H       1  UNL1        0.0292
     27 H           6.7867    0.8569    0.0000 H       1  UNL1        0.0292
     28 H           6.7966    2.7767    0.0000 H       1  UNL1        0.0332
     29 H           5.9995    2.7767    0.0000 H       1  UNL1        0.0332
     30 H           5.9198    2.0570    0.0000 H       1  UNL1        0.0427
     31 H           5.5049    1.3384    0.0000 H       1  UNL1        0.0427
     32 H           5.8415   -1.0435    0.0000 H       1  UNL1        0.0618
     33 H           8.7074    0.6111    0.0000 H       1  UNL1        0.0602
     34 H           8.7173   -0.4336    0.0000 H       1  UNL1        0.0719
     35 H           7.6566    2.6419    0.0000 H       1  UNL1        0.0391
     36 H           7.1790    3.3773    0.0000 H       1  UNL1        0.0391
     37 H           6.4436    2.8997    0.0000 H       1  UNL1        0.0391
     38 H           4.6453    2.9564    0.0000 H       1  UNL1        0.0622
     39 H           3.1963    2.1346    0.0000 H       1  UNL1        0.0655
     40 H           9.5858   -0.9313    0.0000 H       1  UNL1        0.2108
     41 H           4.1164   -1.0490    0.0000 H       1  UNL1        0.2923
     42 H           7.8282   -3.3066    0.0000 H       1  UNL1        0.0660
     43 H           8.6760   -3.0829    0.0000 H       1  UNL1        0.0660
     44 H           8.4523   -2.2351    0.0000 H       1  UNL1        0.0660
     45 H           2.3079    1.3124    0.0000 H       1  UNL1        0.0660
     46 H           1.4619    1.0822    0.0000 H       1  UNL1        0.0660
     47 H           1.6921    0.2361    0.0000 H       1  UNL1        0.0660
@<TRIPOS>BOND
     1     1    17    1
     2     1    23    1
     3     2    16    1
     4     2    40    1
     5     3    18    1
     6     3    41    1
     7     4    21    1
     8     4    24    1
     9     5     7    1
    10     5    12    1
    11     5    19    1
    12     6     8    1
    13     6     9    1
    14     6    10    1
    15     6    14    1
    16     7     8    1
    17     7    11    1
    18     7    25    1
    19     8    15    2
    20     9    12    1
    21     9    26    1
    22     9    27    1
    23    10    13   ar
    24    10    18   ar
    25    11    13    1
    26    11    28    1
    27    11    29    1
    28    12    30    1
    29    12    31    1
    30    13    20   ar
    31    14    17    2
    32    14    32    1
    33    15    16    1
    34    15    33    1
    35    16    17    1
    36    16    34    1
    37    18    21   ar
    38    19    35    1
    39    19    36    1
    40    19    37    1
    41    20    22   ar
    42    20    38    1
    43    21    22   ar
    44    22    39    1
    45    23    42    1
    46    23    43    1
    47    23    44    1
    48    24    45    1
    49    24    46    1
    50    24    47    1
