@<TRIPOS>MOLECULE
IMPHY002462
 63 68 0 0 0
SMALL
GASTEIGER

@<TRIPOS>ATOM
      1 O           4.4050   -2.1542    0.0000 O.3     1  UNL1       -0.3841
      2 O           3.9638   -1.3161    0.0000 O.3     1  UNL1       -0.3852
      3 O           7.3040    1.2769    0.0000 O.3     1  UNL1       -0.3912
      4 O           3.5871    0.8511    0.0000 O.3     1  UNL1       -0.3910
      5 O           3.1863    1.7349    0.0000 O.3     1  UNL1       -0.3793
      6 N           8.4993   -0.5521    0.0000 N.3     1  UNL1       -0.2957
      7 C           6.5527   -0.1569    0.0000 C.3     1  UNL1        0.0217
      8 C           6.5527   -1.0245    0.0000 C.3     1  UNL1       -0.0219
      9 C           5.8744    0.3840    0.0000 C.3     1  UNL1       -0.0229
     10 C           7.5546   -0.2629    0.0000 C.3     1  UNL1        0.0504
     11 C           5.0285   -1.3724    0.0000 C.3     1  UNL1        0.1113
     12 C           5.0285    0.1910    0.0000 C.3     1  UNL1        0.0205
     13 C           4.6521   -0.5907    0.0000 C.3     1  UNL1        0.1038
     14 C           5.8744   -1.5654    0.0000 C.3     1  UNL1       -0.0158
     15 C           7.3040   -1.4583    0.0000 C.3     1  UNL1       -0.0157
     16 C           7.3040    0.2769    0.0000 C.3     1  UNL1        0.0629
     17 C           5.9521    1.2481    0.0000 C.3     1  UNL1       -0.0416
     18 C           5.1544    1.5891    0.0000 C.3     1  UNL1        0.0120
     19 C           4.5836    0.9357    0.0000 C.3     1  UNL1        0.0662
     20 C           4.0072   -0.3208    0.0000 C.3     1  UNL1        0.0058
     21 C           8.4993   -1.3040    0.0000 C.3     1  UNL1        0.0050
     22 C           8.0553   -1.0245    0.0000 C.3     1  UNL1       -0.0438
     23 C           4.0072    1.1638    0.0000 C.3     1  UNL1        0.0662
     24 C           8.0553   -0.1569    0.0000 C.3     1  UNL1       -0.0257
     25 C           7.3040   -2.4583    0.0000 C.3     1  UNL1       -0.0581
     26 C           9.3033    0.0426    0.0000 C.3     1  UNL1       -0.0035
     27 C          10.2203   -0.3564    0.0000 C.3     1  UNL1       -0.0523
     28 C           3.2705    2.7313    0.0000 C.3     1  UNL1        0.0368
     29 H           6.6162   -1.8721    0.0000 H       1  UNL1        0.0314
     30 H           6.6560    0.7181    0.0000 H       1  UNL1        0.0312
     31 H           7.9991    0.4616    0.0000 H       1  UNL1        0.0498
     32 H           4.1794    0.1528    0.0000 H       1  UNL1        0.0357
     33 H           6.3591   -1.9520    0.0000 H       1  UNL1        0.0297
     34 H           5.6053   -2.1240    0.0000 H       1  UNL1        0.0297
     35 H           6.7671    0.5869    0.0000 H       1  UNL1        0.0599
     36 H           6.1349    1.8406    0.0000 H       1  UNL1        0.0272
     37 H           6.5604    1.1283    0.0000 H       1  UNL1        0.0272
     38 H           5.1751    2.4388    0.0000 H       1  UNL1        0.0351
     39 H           4.3034    1.4889    0.0000 H       1  UNL1        0.0600
     40 H           3.8453   -0.9192    0.0000 H       1  UNL1        0.0319
     41 H           3.3926   -0.2391    0.0000 H       1  UNL1        0.0319
     42 H           9.1188   -1.2775    0.0000 H       1  UNL1        0.0432
     43 H           8.5523   -1.9218    0.0000 H       1  UNL1        0.0432
     44 H           8.6659   -0.9168    0.0000 H       1  UNL1        0.0272
     45 H           8.2674   -1.6071    0.0000 H       1  UNL1        0.0272
     46 H           4.0854    1.7788    0.0000 H       1  UNL1        0.0600
     47 H           8.2674    0.4257    0.0000 H       1  UNL1        0.0290
     48 H           8.6659   -0.2646    0.0000 H       1  UNL1        0.0290
     49 H           7.9240   -2.4583    0.0000 H       1  UNL1        0.0236
     50 H           7.3040   -3.0783    0.0000 H       1  UNL1        0.0236
     51 H           6.6840   -2.4583    0.0000 H       1  UNL1        0.0236
     52 H           4.6315   -2.7313    0.0000 H       1  UNL1        0.2104
     53 H           3.3609   -1.1714    0.0000 H       1  UNL1        0.2103
     54 H           8.8536    0.4694    0.0000 H       1  UNL1        0.0424
     55 H           9.6456    0.5595    0.0000 H       1  UNL1        0.0424
     56 H           7.8409    1.5869    0.0000 H       1  UNL1        0.2098
     57 H           3.3237    0.2898    0.0000 H       1  UNL1        0.2098
     58 H          10.4676    0.2122    0.0000 H       1  UNL1        0.0242
     59 H          10.7888   -0.6037    0.0000 H       1  UNL1        0.0242
     60 H           9.9730   -0.9249    0.0000 H       1  UNL1        0.0242
     61 H           2.6527    2.7835    0.0000 H       1  UNL1        0.0524
     62 H           3.3227    3.3491    0.0000 H       1  UNL1        0.0524
     63 H           3.8883    2.6791    0.0000 H       1  UNL1        0.0524
@<TRIPOS>BOND
     1    11     1    1
     2     1    52    1
     3    13     2    1
     4     2    53    1
     5    16     3    1
     6     3    56    1
     7    19     4    1
     8     4    57    1
     9    23     5    1
    10     5    28    1
    11     6    10    1
    12     6    21    1
    13     6    26    1
    14     7     8    1
    15     7     9    1
    16     7    10    1
    17     7    16    1
    18     8    14    1
    19     8    15    1
    20     8    29    1
    21     9    12    1
    22     9    17    1
    23     9    30    1
    24    10    11    1
    25    10    31    1
    26    11    13    1
    27    11    14    1
    28    12    13    1
    29    12    19    1
    30    12    32    1
    31    13    20    1
    32    14    33    1
    33    14    34    1
    34    15    21    1
    35    15    22    1
    36    15    25    1
    37    16    24    1
    38    16    35    1
    39    17    18    1
    40    17    36    1
    41    17    37    1
    42    18    19    1
    43    18    23    1
    44    18    38    1
    45    19    39    1
    46    20    23    1
    47    20    40    1
    48    20    41    1
    49    21    42    1
    50    21    43    1
    51    22    24    1
    52    22    44    1
    53    22    45    1
    54    23    46    1
    55    24    47    1
    56    24    48    1
    57    25    49    1
    58    25    50    1
    59    25    51    1
    60    26    27    1
    61    26    54    1
    62    26    55    1
    63    27    58    1
    64    27    59    1
    65    27    60    1
    66    28    61    1
    67    28    62    1
    68    28    63    1
