@<TRIPOS>MOLECULE
IMPHY009005
 64 69 0 0 0
SMALL
GASTEIGER

@<TRIPOS>ATOM
      1 O           6.0290    2.0966    0.0000 O.2     1  UNL1       -0.4537
      2 O           6.0010   -1.8687    0.0000 O.2     1  UNL1       -0.4544
      3 O           2.5369    2.1313    0.0000 O.3     1  UNL1       -0.5059
      4 O           2.5369    1.1313    0.0000 O.3     1  UNL1       -0.5062
      5 O           4.2690    5.1313    0.0000 O.3     1  UNL1       -0.5058
      6 O           6.0174    5.1659    0.0000 O.2     1  UNL1       -0.2869
      7 O           7.7452   -4.9380    0.0000 O.3     1  UNL1       -0.4949
      8 O           9.5033   -1.8656    0.0000 O.3     1  UNL1       -0.5058
      9 O           8.5991   -0.3687    0.0000 O.2     1  UNL1       -0.2869
     10 O          10.3914    0.5971    0.0000 O.3     1  UNL1       -0.4951
     11 C           4.2690    2.1313    0.0000 C.ar    1  UNL1        0.0702
     12 C           5.1350    2.6313    0.0000 C.ar    1  UNL1        0.1541
     13 C           4.2690    1.1313    0.0000 C.ar    1  UNL1        0.0313
     14 C           5.1350    3.6313    0.0000 C.ar    1  UNL1        0.1061
     15 C           5.1350   -0.3687    0.0000 C.ar    1  UNL1        0.0182
     16 C           5.1350    0.6313    0.0000 C.ar    1  UNL1       -0.0396
     17 C           3.4030    2.6313    0.0000 C.ar    1  UNL1        0.1317
     18 C           3.4030    0.6313    0.0000 C.ar    1  UNL1        0.1248
     19 C           4.2690    4.1313    0.0000 C.ar    1  UNL1        0.1347
     20 C           6.0010   -0.8687    0.0000 C.ar    1  UNL1        0.1392
     21 C           6.9350    2.6105    0.0000 C.ar    1  UNL1        0.1393
     22 C           3.4030    3.6313    0.0000 C.ar    1  UNL1        0.0229
     23 C           6.0290    4.1660    0.0000 C.ar    1  UNL1        0.1966
     24 C           4.2690   -0.8687    0.0000 C.ar    1  UNL1       -0.0476
     25 C           3.4030   -0.3687    0.0000 C.ar    1  UNL1       -0.0189
     26 C           6.9350    3.6521    0.0000 C.ar    1  UNL1        0.0288
     27 C           7.7331   -1.8687    0.0000 C.ar    1  UNL1        0.1055
     28 C           6.8671   -2.3687    0.0000 C.ar    1  UNL1        0.1462
     29 C           7.7991    2.1071    0.0000 C.ar    1  UNL1        0.0176
     30 C           6.8671   -0.3687    0.0000 C.ar    1  UNL1        0.0288
     31 C           7.7331   -0.8687    0.0000 C.ar    1  UNL1        0.1966
     32 C           8.6431   -2.3756    0.0000 C.ar    1  UNL1        0.1347
     33 C           6.8510   -3.4102    0.0000 C.ar    1  UNL1        0.0233
     34 C           8.6671    2.6038    0.0000 C.ar    1  UNL1       -0.0476
     35 C           7.7953    1.1072    0.0000 C.ar    1  UNL1       -0.0476
     36 C           7.7490   -3.9380    0.0000 C.ar    1  UNL1        0.1271
     37 C           8.6511   -3.4172    0.0000 C.ar    1  UNL1        0.0225
     38 C           9.5312    2.1005    0.0000 C.ar    1  UNL1       -0.0193
     39 C           8.6594    0.6038    0.0000 C.ar    1  UNL1       -0.0193
     40 C           9.5273    1.1005    0.0000 C.ar    1  UNL1        0.1201
     41 C           8.6093   -5.4413    0.0000 C.3     1  UNL1        0.0788
     42 C          11.2593    1.0938    0.0000 C.3     1  UNL1        0.0788
     43 H           5.6720    0.9413    0.0000 H       1  UNL1        0.0632
     44 H           2.8660    3.9413    0.0000 H       1  UNL1        0.0691
     45 H           4.2690   -1.4887    0.0000 H       1  UNL1        0.0626
     46 H           2.8660   -0.6787    0.0000 H       1  UNL1        0.0654
     47 H           7.4708    3.9642    0.0000 H       1  UNL1        0.0693
     48 H           6.8671    0.2513    0.0000 H       1  UNL1        0.0693
     49 H           6.3105   -3.7140    0.0000 H       1  UNL1        0.0691
     50 H           8.6694    3.2238    0.0000 H       1  UNL1        0.0626
     51 H           7.2571    0.7992    0.0000 H       1  UNL1        0.0626
     52 H           9.1892   -3.7251    0.0000 H       1  UNL1        0.0691
     53 H           2.0000    2.4413    0.0000 H       1  UNL1        0.2922
     54 H           2.0000    0.8213    0.0000 H       1  UNL1        0.2922
     55 H           3.7320    5.4413    0.0000 H       1  UNL1        0.2922
     56 H          10.0693    2.4084    0.0000 H       1  UNL1        0.0654
     57 H           8.6570   -0.0162    0.0000 H       1  UNL1        0.0654
     58 H          10.0438   -2.1693    0.0000 H       1  UNL1        0.2922
     59 H           8.2972   -5.9770    0.0000 H       1  UNL1        0.0660
     60 H           9.1450   -5.7534    0.0000 H       1  UNL1        0.0660
     61 H           8.9213   -4.9056    0.0000 H       1  UNL1        0.0660
     62 H          11.5673    0.5557    0.0000 H       1  UNL1        0.0660
     63 H          11.7975    1.4017    0.0000 H       1  UNL1        0.0660
     64 H          10.9514    1.6319    0.0000 H       1  UNL1        0.0660
@<TRIPOS>BOND
     1     1    12   ar
     2     1    21   ar
     3     2    20   ar
     4     2    28   ar
     5     3    17    1
     6     3    53    1
     7     4    18    1
     8     4    54    1
     9     5    19    1
    10     5    55    1
    11     6    23    2
    12     7    36    1
    13     7    41    1
    14     8    32    1
    15     8    58    1
    16     9    31    2
    17    10    40    1
    18    10    42    1
    19    11    12   ar
    20    11    13    1
    21    11    17   ar
    22    12    14   ar
    23    13    16   ar
    24    13    18   ar
    25    14    19   ar
    26    14    23   ar
    27    15    16   ar
    28    15    20    1
    29    15    24   ar
    30    16    43    1
    31    17    22   ar
    32    18    25   ar
    33    19    22   ar
    34    20    30   ar
    35    21    26   ar
    36    21    29    1
    37    22    44    1
    38    23    26   ar
    39    24    25   ar
    40    24    45    1
    41    25    46    1
    42    26    47    1
    43    27    28   ar
    44    27    31   ar
    45    27    32   ar
    46    28    33   ar
    47    29    34   ar
    48    29    35   ar
    49    30    31   ar
    50    30    48    1
    51    32    37   ar
    52    33    36   ar
    53    33    49    1
    54    34    38   ar
    55    34    50    1
    56    35    39   ar
    57    35    51    1
    58    36    37   ar
    59    37    52    1
    60    38    40   ar
    61    38    56    1
    62    39    40   ar
    63    39    57    1
    64    41    59    1
    65    41    60    1
    66    41    61    1
    67    42    62    1
    68    42    63    1
    69    42    64    1
