@<TRIPOS>MOLECULE
IMPHY000427
 142 149 0 0 0
SMALL
GASTEIGER

@<TRIPOS>ATOM
      1 O           6.0010   -1.6941    0.0000 O.3     1  UNL1       -0.3449
      2 O           8.6763    6.0580    0.0000 O.3     1  UNL1       -0.3908
      3 O           7.7548    7.5853    0.0000 O.3     1  UNL1       -0.3941
      4 O           4.2690   -1.6941    0.0000 O.3     1  UNL1       -0.3431
      5 O           6.0010   -3.6941    0.0000 O.3     1  UNL1       -0.3377
      6 O           4.2690   -4.6941    0.0000 O.3     1  UNL1       -0.3864
      7 O           2.5369   -3.6941    0.0000 O.3     1  UNL1       -0.3866
      8 O           5.1350   -5.1941    0.0000 O.3     1  UNL1       -0.3405
      9 O           7.7331   -4.6941    0.0000 O.3     1  UNL1       -0.3378
     10 O           7.7331   -6.6941    0.0000 O.3     1  UNL1       -0.3864
     11 O           6.0010   -7.6941    0.0000 O.3     1  UNL1       -0.3865
     12 O           8.5991   -6.1941    0.0000 O.3     1  UNL1       -0.3431
     13 O           3.4030   -6.1941    0.0000 O.3     1  UNL1       -0.3924
     14 O           9.4651   -3.6941    0.0000 O.3     1  UNL1       -0.3841
     15 O          11.1972   -4.6941    0.0000 O.3     1  UNL1       -0.3864
     16 O          11.1972   -6.6941    0.0000 O.3     1  UNL1       -0.3866
     17 C           6.9021    3.0061    0.0000 C.3     1  UNL1       -0.0158
     18 C           6.0260    1.4612    0.0000 C.3     1  UNL1       -0.0218
     19 C           6.0380    2.5027    0.0000 C.3     1  UNL1       -0.0107
     20 C           6.9260    0.9369    0.0000 C.3     1  UNL1       -0.0276
     21 C           6.8982    4.0061    0.0000 C.3     1  UNL1        0.0012
     22 C           7.8140    2.5027    0.0000 C.3     1  UNL1       -0.0460
     23 C           6.9386   -0.1480    0.0000 C.3     1  UNL1       -0.0052
     24 C           7.8261    1.4612    0.0000 C.3     1  UNL1       -0.0486
     25 C           5.0761    0.9369    0.0000 C.3     1  UNL1       -0.0444
     26 C           6.0303    4.5027    0.0000 C.2     1  UNL1       -0.0412
     27 C           7.8063    4.5164    0.0000 C.3     1  UNL1       -0.0160
     28 C           6.0010   -0.6941    0.0000 C.3     1  UNL1        0.0672
     29 C           6.9062    6.0754    0.0000 C.3     1  UNL1        0.0413
     30 C           5.0635   -0.1480    0.0000 C.3     1  UNL1       -0.0255
     31 C           7.8862    3.1835    0.0000 C.3     1  UNL1       -0.0582
     32 C           5.1701    2.9994    0.0000 C.2     1  UNL1       -0.0796
     33 C           5.1619    1.9645    0.0000 C.3     1  UNL1       -0.0587
     34 C           6.0102    5.5442    0.0000 C.2     1  UNL1       -0.0546
     35 C           7.8103    5.5580    0.0000 C.3     1  UNL1        0.0674
     36 C           7.8837    3.8362    0.0000 C.3     1  UNL1       -0.0549
     37 C           5.1662    3.9994    0.0000 C.2     1  UNL1       -0.0617
     38 C           7.9385   -0.1403    0.0000 C.3     1  UNL1       -0.0572
     39 C           7.4452   -1.0102    0.0000 C.3     1  UNL1       -0.0572
     40 C           6.9104    7.1604    0.0000 C.3     1  UNL1       -0.0387
     41 C           5.0563    6.0611    0.0000 C.3     1  UNL1       -0.0253
     42 C           5.0354    7.1459    0.0000 C.3     1  UNL1       -0.0311
     43 C           5.9687    7.6992    0.0000 C.3     1  UNL1       -0.0466
     44 C           7.7664    6.5854    0.0000 C.3     1  UNL1        0.0559
     45 C           4.5221    8.0041    0.0000 C.3     1  UNL1       -0.0595
     46 C           4.0355    7.1305    0.0000 C.3     1  UNL1       -0.0595
     47 C           5.1350   -2.1941    0.0000 C.3     1  UNL1        0.1885
     48 C           5.1350   -3.1941    0.0000 C.3     1  UNL1        0.1406
     49 C           4.2690   -3.6941    0.0000 C.3     1  UNL1        0.1143
     50 C           3.4030   -2.1941    0.0000 C.3     1  UNL1        0.0873
     51 C           3.4030   -3.1941    0.0000 C.3     1  UNL1        0.1095
     52 C           2.5369   -1.6941    0.0000 C.3     1  UNL1       -0.0361
     53 C           6.0010   -4.6941    0.0000 C.3     1  UNL1        0.1889
     54 C           6.8671   -5.1941    0.0000 C.3     1  UNL1        0.1406
     55 C           6.8671   -6.1941    0.0000 C.3     1  UNL1        0.1144
     56 C           5.1350   -6.1941    0.0000 C.3     1  UNL1        0.1130
     57 C           6.0010   -6.6941    0.0000 C.3     1  UNL1        0.1119
     58 C           4.2690   -6.6941    0.0000 C.3     1  UNL1        0.0730
     59 C           8.5991   -5.1941    0.0000 C.3     1  UNL1        0.1884
     60 C           9.4651   -4.6941    0.0000 C.3     1  UNL1        0.1341
     61 C          10.3312   -5.1941    0.0000 C.3     1  UNL1        0.1140
     62 C           9.4651   -6.6941    0.0000 C.3     1  UNL1        0.0873
     63 C          10.3312   -6.1941    0.0000 C.3     1  UNL1        0.1095
     64 C           9.4651   -7.6941    0.0000 C.3     1  UNL1       -0.0361
     65 H           6.7725    2.0749    0.0000 H       1  UNL1        0.0354
     66 H           7.6654    0.5176    0.0000 H       1  UNL1        0.0312
     67 H           8.4261    2.4037    0.0000 H       1  UNL1        0.0271
     68 H           8.0163    3.0888    0.0000 H       1  UNL1        0.0271
     69 H           8.0419    0.8800    0.0000 H       1  UNL1        0.0268
     70 H           8.4357    1.5743    0.0000 H       1  UNL1        0.0268
     71 H           4.8738    1.5230    0.0000 H       1  UNL1        0.0272
     72 H           4.4640    0.8379    0.0000 H       1  UNL1        0.0272
     73 H           8.0131    3.9319    0.0000 H       1  UNL1        0.0299
     74 H           8.4175    4.6202    0.0000 H       1  UNL1        0.0299
     75 H           6.5386   -1.0031    0.0000 H       1  UNL1        0.0602
     76 H           4.4539   -0.0349    0.0000 H       1  UNL1        0.0290
     77 H           4.8477   -0.7293    0.0000 H       1  UNL1        0.0290
     78 H           7.9962    2.5734    0.0000 H       1  UNL1        0.0236
     79 H           8.4964    3.2936    0.0000 H       1  UNL1        0.0236
     80 H           7.7762    3.7937    0.0000 H       1  UNL1        0.0236
     81 H           4.6343    2.6873    0.0000 H       1  UNL1        0.0575
     82 H           5.4739    2.5003    0.0000 H       1  UNL1        0.0235
     83 H           4.6261    2.2766    0.0000 H       1  UNL1        0.0235
     84 H           4.8498    1.4288    0.0000 H       1  UNL1        0.0235
     85 H           8.3466    5.2470    0.0000 H       1  UNL1        0.0603
     86 H           7.7784    3.2252    0.0000 H       1  UNL1        0.0238
     87 H           8.4947    3.7309    0.0000 H       1  UNL1        0.0238
     88 H           7.9890    4.4472    0.0000 H       1  UNL1        0.0238
     89 H           4.6281    4.3073    0.0000 H       1  UNL1        0.0617
     90 H           6.9107   -1.3243    0.0000 H       1  UNL1        0.0236
     91 H           7.7594   -1.5447    0.0000 H       1  UNL1        0.0236
     92 H           7.9433   -0.7603    0.0000 H       1  UNL1        0.0236
     93 H           8.5585   -0.1355    0.0000 H       1  UNL1        0.0236
     94 H           7.9338    0.4797    0.0000 H       1  UNL1        0.0236
     95 H           7.9798   -0.6960    0.0000 H       1  UNL1        0.0236
     96 H           7.5208    7.0519    0.0000 H       1  UNL1        0.0275
     97 H           7.1217    7.7433    0.0000 H       1  UNL1        0.0275
     98 H           4.4435    6.1554    0.0000 H       1  UNL1        0.0316
     99 H           4.8585    5.4735    0.0000 H       1  UNL1        0.0316
    100 H           6.3642    8.1767    0.0000 H       1  UNL1        0.0271
    101 H           5.5659    8.1706    0.0000 H       1  UNL1        0.0271
    102 H           7.9852    6.0052    0.0000 H       1  UNL1        0.0567
    103 H           8.3757    6.7001    0.0000 H       1  UNL1        0.0567
    104 H           9.2133    5.7480    0.0000 H       1  UNL1        0.2098
    105 H           4.0260    7.7504    0.0000 H       1  UNL1        0.0235
    106 H           3.4156    7.1209    0.0000 H       1  UNL1        0.0235
    107 H           4.0451    6.5106    0.0000 H       1  UNL1        0.0235
    108 H           5.0542    8.3224    0.0000 H       1  UNL1        0.0235
    109 H           4.2038    8.5362    0.0000 H       1  UNL1        0.0235
    110 H           3.9900    7.6859    0.0000 H       1  UNL1        0.0235
    111 H           5.1350   -1.5741    0.0000 H       1  UNL1        0.0938
    112 H           8.2882    7.9015    0.0000 H       1  UNL1        0.2094
    113 H           5.1350   -3.8141    0.0000 H       1  UNL1        0.0675
    114 H           3.7320   -4.0041    0.0000 H       1  UNL1        0.0648
    115 H           3.4030   -1.5741    0.0000 H       1  UNL1        0.0621
    116 H           2.8660   -2.8841    0.0000 H       1  UNL1        0.0646
    117 H           2.8469   -1.1572    0.0000 H       1  UNL1        0.0255
    118 H           2.0000   -1.3841    0.0000 H       1  UNL1        0.0255
    119 H           2.2269   -2.2311    0.0000 H       1  UNL1        0.0255
    120 H           6.5380   -4.3841    0.0000 H       1  UNL1        0.0938
    121 H           3.7320   -5.0041    0.0000 H       1  UNL1        0.2100
    122 H           2.0000   -3.3841    0.0000 H       1  UNL1        0.2100
    123 H           7.4040   -5.5041    0.0000 H       1  UNL1        0.0675
    124 H           6.8671   -6.8141    0.0000 H       1  UNL1        0.0648
    125 H           4.5981   -5.8841    0.0000 H       1  UNL1        0.0647
    126 H           5.4641   -7.0041    0.0000 H       1  UNL1        0.0647
    127 H           3.8705   -7.1691    0.0000 H       1  UNL1        0.0584
    128 H           4.6675   -7.1691    0.0000 H       1  UNL1        0.0584
    129 H           8.0622   -5.5041    0.0000 H       1  UNL1        0.0938
    130 H           7.7331   -7.3141    0.0000 H       1  UNL1        0.2100
    131 H           5.4641   -8.0041    0.0000 H       1  UNL1        0.2100
    132 H          10.0021   -4.3841    0.0000 H       1  UNL1        0.0671
    133 H          10.8681   -5.5041    0.0000 H       1  UNL1        0.0648
    134 H           2.8660   -6.5041    0.0000 H       1  UNL1        0.2095
    135 H           8.9282   -7.0041    0.0000 H       1  UNL1        0.0621
    136 H          10.3312   -6.8141    0.0000 H       1  UNL1        0.0646
    137 H          10.0021   -3.3841    0.0000 H       1  UNL1        0.2101
    138 H           8.8451   -7.6941    0.0000 H       1  UNL1        0.0255
    139 H           9.4651   -8.3141    0.0000 H       1  UNL1        0.0255
    140 H          10.0851   -7.6941    0.0000 H       1  UNL1        0.0255
    141 H          11.7341   -5.0041    0.0000 H       1  UNL1        0.2100
    142 H          11.1972   -7.3141    0.0000 H       1  UNL1        0.2100
@<TRIPOS>BOND
     1    28     1    1
     2    47     1    1
     3    35     2    1
     4     2   104    1
     5     3    44    1
     6     3   112    1
     7     4    47    1
     8     4    50    1
     9    48     5    1
    10    53     5    1
    11    49     6    1
    12     6   121    1
    13    51     7    1
    14     7   122    1
    15     8    53    1
    16     8    56    1
    17    54     9    1
    18    59     9    1
    19    55    10    1
    20    10   130    1
    21    57    11    1
    22    11   131    1
    23    12    59    1
    24    12    62    1
    25    13    58    1
    26    13   134    1
    27    60    14    1
    28    14   137    1
    29    61    15    1
    30    15   141    1
    31    63    16    1
    32    16   142    1
    33    17    19    1
    34    17    21    1
    35    17    22    1
    36    17    31    1
    37    18    19    1
    38    18    20    1
    39    18    25    1
    40    18    33    1
    41    19    32    1
    42    19    65    1
    43    20    23    1
    44    20    24    1
    45    20    66    1
    46    21    26    1
    47    21    27    1
    48    21    36    1
    49    22    24    1
    50    22    67    1
    51    22    68    1
    52    23    28    1
    53    23    38    1
    54    23    39    1
    55    24    69    1
    56    24    70    1
    57    25    30    1
    58    25    71    1
    59    25    72    1
    60    26    34    2
    61    26    37    1
    62    27    35    1
    63    27    73    1
    64    27    74    1
    65    28    30    1
    66    28    75    1
    67    29    34    1
    68    29    35    1
    69    29    40    1
    70    29    44    1
    71    30    76    1
    72    30    77    1
    73    31    78    1
    74    31    79    1
    75    31    80    1
    76    32    37    2
    77    32    81    1
    78    33    82    1
    79    33    83    1
    80    33    84    1
    81    34    41    1
    82    35    85    1
    83    36    86    1
    84    36    87    1
    85    36    88    1
    86    37    89    1
    87    38    92    1
    88    38    93    1
    89    38    94    1
    90    39    90    1
    91    39    91    1
    92    39    95    1
    93    40    43    1
    94    40    96    1
    95    40    97    1
    96    41    42    1
    97    41    98    1
    98    41    99    1
    99    42    43    1
   100    42    45    1
   101    42    46    1
   102    43   100    1
   103    43   101    1
   104    44   102    1
   105    44   103    1
   106    45   108    1
   107    45   109    1
   108    45   110    1
   109    46   105    1
   110    46   106    1
   111    46   107    1
   112    47    48    1
   113    47   111    1
   114    48    49    1
   115    48   113    1
   116    49    51    1
   117    49   114    1
   118    50    51    1
   119    50    52    1
   120    50   115    1
   121    51   116    1
   122    52   117    1
   123    52   118    1
   124    52   119    1
   125    53    54    1
   126    53   120    1
   127    54    55    1
   128    54   123    1
   129    55    57    1
   130    55   124    1
   131    56    57    1
   132    56    58    1
   133    56   125    1
   134    57   126    1
   135    58   127    1
   136    58   128    1
   137    59    60    1
   138    59   129    1
   139    60    61    1
   140    60   132    1
   141    61    63    1
   142    61   133    1
   143    62    63    1
   144    62    64    1
   145    62   135    1
   146    63   136    1
   147    64   138    1
   148    64   139    1
   149    64   140    1
