@<TRIPOS>MOLECULE
IMPHY016837
 25 25 0 0 0
SMALL
GASTEIGER

@<TRIPOS>ATOM
      1 I           2.0484    0.0000    0.0000 I       1  UNL1        0.0000
      2 N           3.2018    4.5770    0.0000 N.ar    2  UNL2       -0.1974
      3 C           2.3358    5.0770    0.0000 C.ar    2  UNL2        0.2149
      4 C           2.3358    6.0770    0.0000 C.ar    2  UNL2        0.0464
      5 C           3.2018    3.5770    0.0000 C.3     2  UNL2        0.1483
      6 C           4.0678    5.0770    0.0000 C.ar    2  UNL2        0.1718
      7 C           1.4418    4.5423    0.0000 C.ar    2  UNL2        0.0103
      8 C           3.2018    6.5770    0.0000 C.ar    2  UNL2       -0.0427
      9 C           4.0678    6.0770    0.0000 C.ar    2  UNL2        0.0027
     10 C           1.4418    6.6116    0.0000 C.ar    2  UNL2       -0.0483
     11 C           4.0678    3.0770    0.0000 C.3     2  UNL2       -0.0050
     12 C           0.5357    5.0562    0.0000 C.ar    2  UNL2       -0.0555
     13 C           0.5357    6.0978    0.0000 C.ar    2  UNL2       -0.0608
     14 H           2.5912    3.6846    0.0000 H       2  UNL2        0.1028
     15 H           2.9897    2.9944    0.0000 H       2  UNL2        0.1028
     16 H           4.6047    4.7670    0.0000 H       2  UNL2        0.1376
     17 H           1.4490    3.9224    0.0000 H       2  UNL2        0.0683
     18 H           3.2018    7.1970    0.0000 H       2  UNL2        0.0627
     19 H           4.6047    6.3870    0.0000 H       2  UNL2        0.0677
     20 H           1.4490    7.2316    0.0000 H       2  UNL2        0.0626
     21 H           3.7578    2.5400    0.0000 H       2  UNL2        0.0291
     22 H           4.6047    2.7670    0.0000 H       2  UNL2        0.0291
     23 H           4.3778    3.6139    0.0000 H       2  UNL2        0.0291
     24 H           0.0000    4.7441    0.0000 H       2  UNL2        0.0620
     25 H           0.0000    6.4098    0.0000 H       2  UNL2        0.0618
@<TRIPOS>UNITY_ATOM_ATTR
1 1
charge -1
2 1
charge 1
@<TRIPOS>BOND
     1     2     3   ar
     2     2     5    1
     3     2     6   ar
     4     3     4   ar
     5     3     7   ar
     6     4     8   ar
     7     4    10   ar
     8     5    11    1
     9     5    14    1
    10     5    15    1
    11     6     9   ar
    12     6    16    1
    13     7    12   ar
    14     7    17    1
    15     8     9   ar
    16     8    18    1
    17     9    19    1
    18    10    13   ar
    19    10    20    1
    20    11    21    1
    21    11    22    1
    22    11    23    1
    23    12    13   ar
    24    12    24    1
    25    13    25    1
