@<TRIPOS>MOLECULE
IMPHY005096
 40 41 0 0 0
SMALL
GASTEIGER

@<TRIPOS>ATOM
      1 O           4.2690   -1.0000    0.0000 O.3     1  UNL1       -0.4552
      2 O           2.5369   -2.0000    0.0000 O.3     1  UNL1       -0.3852
      3 O           2.5369   -4.0000    0.0000 O.3     1  UNL1       -0.3851
      4 O           6.0010   -5.0000    0.0000 O.3     1  UNL1       -0.4773
      5 O           6.8671   -3.5000    0.0000 O.2     1  UNL1       -0.2455
      6 O           6.0010   -1.0000    0.0000 O.2     1  UNL1       -0.2456
      7 O           7.7331    4.0000    0.0000 O.3     1  UNL1       -0.5033
      8 O           6.0010    5.0000    0.0000 O.3     1  UNL1       -0.5033
      9 C           4.2690   -2.0000    0.0000 C.3     1  UNL1        0.1360
     10 C           3.4030   -2.5000    0.0000 C.3     1  UNL1        0.1216
     11 C           3.4030   -3.5000    0.0000 C.3     1  UNL1        0.1034
     12 C           5.1350   -2.5000    0.0000 C.3     1  UNL1        0.0187
     13 C           5.1350   -3.5000    0.0000 C.2     1  UNL1        0.0386
     14 C           4.2690   -4.0000    0.0000 C.2     1  UNL1       -0.0432
     15 C           6.0010   -4.0000    0.0000 C.2     1  UNL1        0.3327
     16 C           5.1350   -0.5000    0.0000 C.2     1  UNL1        0.3323
     17 C           5.1350    0.5000    0.0000 C.2     1  UNL1        0.0231
     18 C           6.0010    1.0000    0.0000 C.2     1  UNL1       -0.0477
     19 C           6.0010    2.0000    0.0000 C.ar    1  UNL1       -0.0211
     20 C           6.8671    2.5000    0.0000 C.ar    1  UNL1       -0.0094
     21 C           5.1350    2.5000    0.0000 C.ar    1  UNL1       -0.0509
     22 C           6.8671    3.5000    0.0000 C.ar    1  UNL1        0.1588
     23 C           5.1350    3.5000    0.0000 C.ar    1  UNL1       -0.0160
     24 C           6.0010    4.0000    0.0000 C.ar    1  UNL1        0.1582
     25 H           4.8059   -1.6900    0.0000 H       1  UNL1        0.0764
     26 H           3.4030   -1.8800    0.0000 H       1  UNL1        0.0660
     27 H           3.4030   -4.1200    0.0000 H       1  UNL1        0.0665
     28 H           5.7456   -2.6077    0.0000 H       1  UNL1        0.0352
     29 H           5.3471   -1.9174    0.0000 H       1  UNL1        0.0352
     30 H           4.2690   -4.6200    0.0000 H       1  UNL1        0.0603
     31 H           2.0000   -2.3100    0.0000 H       1  UNL1        0.2101
     32 H           2.5369   -4.6200    0.0000 H       1  UNL1        0.2103
     33 H           4.5981    0.8100    0.0000 H       1  UNL1        0.0689
     34 H           6.5380   -5.3100    0.0000 H       1  UNL1        0.2954
     35 H           6.5380    0.6900    0.0000 H       1  UNL1        0.0626
     36 H           7.4040    2.1900    0.0000 H       1  UNL1        0.0661
     37 H           4.5981    2.1900    0.0000 H       1  UNL1        0.0625
     38 H           4.5981    3.8100    0.0000 H       1  UNL1        0.0655
     39 H           8.2700    3.6900    0.0000 H       1  UNL1        0.2923
     40 H           5.4641    5.3100    0.0000 H       1  UNL1        0.2923
@<TRIPOS>BOND
     1     9     1    1
     2     1    16    1
     3    10     2    1
     4     2    31    1
     5    11     3    1
     6     3    32    1
     7     4    15    1
     8     4    34    1
     9     5    15    2
    10     6    16    2
    11     7    22    1
    12     7    39    1
    13     8    24    1
    14     8    40    1
    15     9    10    1
    16     9    12    1
    17     9    25    1
    18    10    11    1
    19    10    26    1
    20    11    14    1
    21    11    27    1
    22    12    13    1
    23    12    28    1
    24    12    29    1
    25    13    14    2
    26    13    15    1
    27    14    30    1
    28    16    17    1
    29    17    18    2
    30    17    33    1
    31    18    19    1
    32    18    35    1
    33    19    20   ar
    34    19    21   ar
    35    20    22   ar
    36    20    36    1
    37    21    23   ar
    38    21    37    1
    39    22    24   ar
    40    23    24   ar
    41    23    38    1
