@<TRIPOS>MOLECULE
IMPHY015302
 42 41 0 0 0
SMALL
GASTEIGER

@<TRIPOS>ATOM
      1 O           2.5369    0.7500    0.0000 O.3     1  UNL1       -0.3921
      2 C           7.7331    0.7500    0.0000 C.3     1  UNL1       -0.0531
      3 C           6.8671    0.2500    0.0000 C.3     1  UNL1       -0.0531
      4 C           8.5991    0.2500    0.0000 C.3     1  UNL1       -0.0531
      5 C           6.0010    0.7500    0.0000 C.3     1  UNL1       -0.0530
      6 C           9.4651    0.7500    0.0000 C.3     1  UNL1       -0.0531
      7 C           5.1350    0.2500    0.0000 C.3     1  UNL1       -0.0507
      8 C          10.3312    0.2500    0.0000 C.3     1  UNL1       -0.0531
      9 C           4.2690    0.7500    0.0000 C.3     1  UNL1       -0.0271
     10 C          11.1972    0.7500    0.0000 C.3     1  UNL1       -0.0533
     11 C           3.4030    0.2500    0.0000 C.3     1  UNL1        0.0524
     12 C          12.0632    0.2500    0.0000 C.3     1  UNL1       -0.0559
     13 C           3.4030   -0.7500    0.0000 C.3     1  UNL1       -0.0389
     14 C          12.9292    0.7500    0.0000 C.3     1  UNL1       -0.0653
     15 H           8.1316    1.2250    0.0000 H       1  UNL1        0.0265
     16 H           7.3346    1.2250    0.0000 H       1  UNL1        0.0265
     17 H           6.4685   -0.2249    0.0000 H       1  UNL1        0.0265
     18 H           7.2656   -0.2249    0.0000 H       1  UNL1        0.0265
     19 H           8.2006   -0.2249    0.0000 H       1  UNL1        0.0265
     20 H           8.9976   -0.2249    0.0000 H       1  UNL1        0.0265
     21 H           6.3996    1.2250    0.0000 H       1  UNL1        0.0265
     22 H           5.6025    1.2250    0.0000 H       1  UNL1        0.0265
     23 H           9.8637    1.2250    0.0000 H       1  UNL1        0.0265
     24 H           9.0666    1.2250    0.0000 H       1  UNL1        0.0265
     25 H           4.7365   -0.2249    0.0000 H       1  UNL1        0.0266
     26 H           5.5335   -0.2249    0.0000 H       1  UNL1        0.0266
     27 H           9.9326   -0.2249    0.0000 H       1  UNL1        0.0265
     28 H          10.7297   -0.2249    0.0000 H       1  UNL1        0.0265
     29 H           4.6675    1.2250    0.0000 H       1  UNL1        0.0290
     30 H           3.8705    1.2250    0.0000 H       1  UNL1        0.0290
     31 H          11.5957    1.2250    0.0000 H       1  UNL1        0.0265
     32 H          10.7987    1.2250    0.0000 H       1  UNL1        0.0265
     33 H           3.4030    0.8700    0.0000 H       1  UNL1        0.0590
     34 H          11.6647   -0.2249    0.0000 H       1  UNL1        0.0263
     35 H          12.4617   -0.2249    0.0000 H       1  UNL1        0.0263
     36 H           2.7830   -0.7500    0.0000 H       1  UNL1        0.0254
     37 H           3.4030   -1.3700    0.0000 H       1  UNL1        0.0254
     38 H           4.0230   -0.7500    0.0000 H       1  UNL1        0.0254
     39 H          13.2392    0.2131    0.0000 H       1  UNL1        0.0230
     40 H          13.4662    1.0600    0.0000 H       1  UNL1        0.0230
     41 H          12.6192    1.2869    0.0000 H       1  UNL1        0.0230
     42 H           2.0000    0.4400    0.0000 H       1  UNL1        0.2098
@<TRIPOS>BOND
     1     1    11    1
     2     1    42    1
     3     2     3    1
     4     2     4    1
     5     2    15    1
     6     2    16    1
     7     3     5    1
     8     3    17    1
     9     3    18    1
    10     4     6    1
    11     4    19    1
    12     4    20    1
    13     5     7    1
    14     5    21    1
    15     5    22    1
    16     6     8    1
    17     6    23    1
    18     6    24    1
    19     7     9    1
    20     7    25    1
    21     7    26    1
    22     8    10    1
    23     8    27    1
    24     8    28    1
    25     9    11    1
    26     9    29    1
    27     9    30    1
    28    10    12    1
    29    10    31    1
    30    10    32    1
    31    11    13    1
    32    11    33    1
    33    12    14    1
    34    12    34    1
    35    12    35    1
    36    13    36    1
    37    13    37    1
    38    13    38    1
    39    14    39    1
    40    14    40    1
    41    14    41    1
