@<TRIPOS>MOLECULE
IMPHY016371
 20 20 0 0 0
SMALL
GASTEIGER

@<TRIPOS>ATOM
      1 O           2.0000   -0.5000    0.0000 O.3     1  UNL1       -0.4784
      2 N           3.7320   -0.5000    0.0000 N.ar    1  UNL1       -0.2151
      3 N           3.7320    1.5000    0.0000 N.ar    1  UNL1       -0.2531
      4 C           2.8660    1.0000    0.0000 C.ar    1  UNL1        0.0995
      5 C           2.8660   -0.0000    0.0000 C.ar    1  UNL1        0.2364
      6 C           4.5981    0.0000    0.0000 C.ar    1  UNL1        0.0601
      7 C           4.5981    1.0000    0.0000 C.ar    1  UNL1        0.0491
      8 C           2.0000    1.5000    0.0000 C.3     1  UNL1       -0.0172
      9 C           5.4641   -0.5000    0.0000 C.3     1  UNL1       -0.0208
     10 C           2.0000   -1.5000    0.0000 C.3     1  UNL1        0.0805
     11 H           2.3100    2.0369    0.0000 H       1  UNL1        0.0294
     12 H           1.4631    1.8100    0.0000 H       1  UNL1        0.0294
     13 H           1.6900    0.9631    0.0000 H       1  UNL1        0.0294
     14 H           5.1350    1.3100    0.0000 H       1  UNL1        0.0848
     15 H           5.1541   -1.0369    0.0000 H       1  UNL1        0.0293
     16 H           6.0010   -0.8100    0.0000 H       1  UNL1        0.0293
     17 H           5.7741    0.0369    0.0000 H       1  UNL1        0.0293
     18 H           1.3800   -1.5000    0.0000 H       1  UNL1        0.0660
     19 H           2.0000   -2.1200    0.0000 H       1  UNL1        0.0660
     20 H           2.6200   -1.5000    0.0000 H       1  UNL1        0.0660
@<TRIPOS>BOND
     1     1     5    1
     2     1    10    1
     3     2     5   ar
     4     2     6   ar
     5     3     4   ar
     6     3     7   ar
     7     4     5   ar
     8     4     8    1
     9     6     7   ar
    10     6     9    1
    11     7    14    1
    12     8    11    1
    13     8    12    1
    14     8    13    1
    15     9    15    1
    16     9    16    1
    17     9    17    1
    18    10    18    1
    19    10    19    1
    20    10    20    1
