@<TRIPOS>MOLECULE
IMPHY012846
 69 74 0 0 0
SMALL
GASTEIGER

@<TRIPOS>ATOM
      1 O           4.7211    0.5241    0.0000 O.3     1  UNL1       -0.3657
      2 O           4.1642    0.7458    0.0000 O.3     1  UNL1       -0.3845
      3 O           2.8641    2.6327    0.0000 O.3     1  UNL1       -0.4557
      4 O           7.5647   -1.3093    0.0000 O.2     1  UNL1       -0.2964
      5 O           2.0000    1.0878    0.0000 O.2     1  UNL1       -0.2507
      6 O           4.4993   -4.8231    0.0000 O.3     1  UNL1       -0.4679
      7 O           6.0026   -3.9628    0.0000 O.2     1  UNL1       -0.2509
      8 O           3.2996    5.6910    0.0000 O.2     1  UNL1       -0.4706
      9 C           5.5301    1.1119    0.0000 C.3     1  UNL1        0.1040
     10 C           6.3961    1.6119    0.0000 C.3     1  UNL1        0.0033
     11 C           6.0509   -2.2269    0.0000 C.3     1  UNL1        0.0359
     12 C           6.0301   -0.4269    0.0000 C.3     1  UNL1        0.0475
     13 C           4.6641    1.6119    0.0000 C.3     1  UNL1        0.1142
     14 C           5.0301   -0.4269    0.0000 C.3     1  UNL1        0.0745
     15 C           6.3391    0.5241    0.0000 C.3     1  UNL1       -0.0087
     16 C           5.0093   -2.2269    0.0000 C.3     1  UNL1       -0.0110
     17 C           4.4955   -1.3209    0.0000 C.3     1  UNL1       -0.0038
     18 C           4.6641    2.6119    0.0000 C.3     1  UNL1        0.0412
     19 C           6.5648   -1.3209    0.0000 C.2     1  UNL1        0.1454
     20 C           6.3961    2.6119    0.0000 C.3     1  UNL1       -0.0459
     21 C           5.5301    3.1119    0.0000 C.3     1  UNL1       -0.0408
     22 C           6.5543   -3.0910    0.0000 C.3     1  UNL1       -0.0522
     23 C           3.7702    1.0772    0.0000 C.3     1  UNL1        0.0771
     24 C           3.7702    3.1466    0.0000 C.3     1  UNL1        0.1390
     25 C           4.5060   -3.0910    0.0000 C.3     1  UNL1        0.0492
     26 C           3.6237   -1.8108    0.0000 C.3     1  UNL1       -0.0571
     27 C           3.6353   -0.8109    0.0000 C.3     1  UNL1       -0.0571
     28 C           4.6641    3.6119    0.0000 C.3     1  UNL1       -0.0531
     29 C           2.8641    1.5911    0.0000 C.2     1  UNL1        0.3106
     30 C           3.7817    4.1465    0.0000 C.ar    1  UNL1        0.0310
     31 C           5.0026   -3.9590    0.0000 C.2     1  UNL1        0.3071
     32 C           4.5975    4.7249    0.0000 C.ar    1  UNL1       -0.0172
     33 C           2.9796    4.7436    0.0000 C.ar    1  UNL1        0.0984
     34 C           4.2995    5.6795    0.0000 C.ar    1  UNL1        0.0921
     35 C           4.9960   -5.6910    0.0000 C.3     1  UNL1        0.0817
     36 H           7.1323    1.1869    0.0000 H       1  UNL1        0.0339
     37 H           6.8801   -0.4269    0.0000 H       1  UNL1        0.0404
     38 H           4.4140   -0.3574    0.0000 H       1  UNL1        0.0608
     39 H           6.9055    0.2719    0.0000 H       1  UNL1        0.0302
     40 H           6.6491    1.0611    0.0000 H       1  UNL1        0.0302
     41 H           5.3183   -2.7645    0.0000 H       1  UNL1        0.0321
     42 H           7.0067    2.5042    0.0000 H       1  UNL1        0.0269
     43 H           6.6082    3.1945    0.0000 H       1  UNL1        0.0269
     44 H           5.9286    3.5868    0.0000 H       1  UNL1        0.0273
     45 H           5.1316    3.5868    0.0000 H       1  UNL1        0.0273
     46 H           6.0185   -3.4031    0.0000 H       1  UNL1        0.0239
     47 H           6.8663   -3.6268    0.0000 H       1  UNL1        0.0239
     48 H           7.0900   -2.7790    0.0000 H       1  UNL1        0.0239
     49 H           3.3765    0.5982    0.0000 H       1  UNL1        0.0407
     50 H           4.1748    0.6075    0.0000 H       1  UNL1        0.0407
     51 H           3.2362    3.4617    0.0000 H       1  UNL1        0.0793
     52 H           4.0326   -2.6907    0.0000 H       1  UNL1        0.0381
     53 H           4.0295   -3.4877    0.0000 H       1  UNL1        0.0381
     54 H           3.3199   -1.2704    0.0000 H       1  UNL1        0.0236
     55 H           3.0832   -2.1146    0.0000 H       1  UNL1        0.0236
     56 H           3.9275   -2.3513    0.0000 H       1  UNL1        0.0236
     57 H           3.9515   -0.2776    0.0000 H       1  UNL1        0.0236
     58 H           3.1020   -0.4947    0.0000 H       1  UNL1        0.0236
     59 H           3.3191   -1.3442    0.0000 H       1  UNL1        0.0236
     60 H           5.2841    3.6119    0.0000 H       1  UNL1        0.0237
     61 H           4.6641    4.2319    0.0000 H       1  UNL1        0.0237
     62 H           4.0441    3.6119    0.0000 H       1  UNL1        0.0237
     63 H           3.6272    0.4359    0.0000 H       1  UNL1        0.2103
     64 H           5.1849    4.5265    0.0000 H       1  UNL1        0.0653
     65 H           2.3877    4.5588    0.0000 H       1  UNL1        0.1033
     66 H           4.6697    6.1768    0.0000 H       1  UNL1        0.1029
     67 H           4.4578   -5.9990    0.0000 H       1  UNL1        0.0661
     68 H           5.3039   -6.2292    0.0000 H       1  UNL1        0.0661
     69 H           5.5341   -5.3831    0.0000 H       1  UNL1        0.0661
@<TRIPOS>BOND
     1     9     1    1
     2     1    14    1
     3    13     2    1
     4     2    63    1
     5     3    24    1
     6     3    29    1
     7     4    19    2
     8     5    29    2
     9     6    31    1
    10     6    35    1
    11     7    31    2
    12     8    33   ar
    13     8    34   ar
    14     9    10    1
    15     9    13    1
    16     9    15    1
    17    10    11    1
    18    10    20    1
    19    10    36    1
    20    11    16    1
    21    11    19    1
    22    11    22    1
    23    12    14    1
    24    12    15    1
    25    12    19    1
    26    12    37    1
    27    13    18    1
    28    13    23    1
    29    14    17    1
    30    14    38    1
    31    15    39    1
    32    15    40    1
    33    16    17    1
    34    16    25    1
    35    16    41    1
    36    17    26    1
    37    17    27    1
    38    18    21    1
    39    18    24    1
    40    18    28    1
    41    20    21    1
    42    20    42    1
    43    20    43    1
    44    21    44    1
    45    21    45    1
    46    22    46    1
    47    22    47    1
    48    22    48    1
    49    23    29    1
    50    23    49    1
    51    23    50    1
    52    24    30    1
    53    24    51    1
    54    25    31    1
    55    25    52    1
    56    25    53    1
    57    26    54    1
    58    26    55    1
    59    26    56    1
    60    27    57    1
    61    27    58    1
    62    27    59    1
    63    28    60    1
    64    28    61    1
    65    28    62    1
    66    30    32   ar
    67    30    33   ar
    68    32    34   ar
    69    32    64    1
    70    33    65    1
    71    34    66    1
    72    35    67    1
    73    35    68    1
    74    35    69    1
