@<TRIPOS>MOLECULE
IMPHY005828
 37 39 0 0 0
SMALL
GASTEIGER

@<TRIPOS>ATOM
      1 O           7.2622    0.1123    0.0000 O.3     1  UNL1       -0.3886
      2 O           6.3961    2.6123    0.0000 O.3     1  UNL1       -0.3866
      3 O           7.3424   -1.0829    0.0000 O.2     1  UNL1       -0.4625
      4 O           3.7702   -0.8530    0.0000 O.2     1  UNL1       -0.4218
      5 O           2.0000   -0.8635    0.0000 O.2     1  UNL1       -0.2452
      6 C           6.3961    0.6123    0.0000 C.3     1  UNL1        0.0875
      7 C           6.3961    1.6123    0.0000 C.3     1  UNL1        0.0865
      8 C           5.5301    0.1123    0.0000 C.3     1  UNL1        0.0081
      9 C           5.5301   -0.8877    0.0000 C.ar    1  UNL1        0.0408
     10 C           7.3962    1.6123    0.0000 C.3     1  UNL1       -0.0339
     11 C           5.3961    1.6123    0.0000 C.3     1  UNL1       -0.0339
     12 C           6.3961   -1.3877    0.0000 C.ar    1  UNL1        0.1416
     13 C           4.6641   -1.3877    0.0000 C.ar    1  UNL1        0.1458
     14 C           6.3961   -2.3877    0.0000 C.ar    1  UNL1        0.0212
     15 C           4.6641   -2.3877    0.0000 C.ar    1  UNL1        0.0187
     16 C           5.5301   -2.8877    0.0000 C.ar    1  UNL1       -0.0403
     17 C           7.3424   -2.6924    0.0000 C.ar    1  UNL1       -0.0161
     18 C           3.7702   -2.9223    0.0000 C.ar    1  UNL1       -0.0443
     19 C           7.9260   -1.8877    0.0000 C.ar    1  UNL1        0.0931
     20 C           2.8641   -2.4085    0.0000 C.ar    1  UNL1        0.0236
     21 C           2.8641   -1.3668    0.0000 C.ar    1  UNL1        0.3372
     22 H           6.9331    0.9223    0.0000 H       1  UNL1        0.0625
     23 H           5.3181    0.6949    0.0000 H       1  UNL1        0.0341
     24 H           4.9196    0.0047    0.0000 H       1  UNL1        0.0341
     25 H           5.3961    2.2323    0.0000 H       1  UNL1        0.0258
     26 H           4.7762    1.6123    0.0000 H       1  UNL1        0.0258
     27 H           7.3962    0.9923    0.0000 H       1  UNL1        0.0258
     28 H           8.0162    1.6123    0.0000 H       1  UNL1        0.0258
     29 H           7.3962    2.2323    0.0000 H       1  UNL1        0.0258
     30 H           5.3961    0.9923    0.0000 H       1  UNL1        0.0258
     31 H           5.5301   -3.5077    0.0000 H       1  UNL1        0.0632
     32 H           7.7991    0.4223    0.0000 H       1  UNL1        0.2099
     33 H           6.9331    2.9223    0.0000 H       1  UNL1        0.2102
     34 H           7.5350   -3.2817    0.0000 H       1  UNL1        0.0655
     35 H           3.7773   -3.5423    0.0000 H       1  UNL1        0.0627
     36 H           8.5460   -1.8877    0.0000 H       1  UNL1        0.1029
     37 H           2.3284   -2.7205    0.0000 H       1  UNL1        0.0689
@<TRIPOS>BOND
     1     1     6    1
     2     1    32    1
     3     2     7    1
     4     2    33    1
     5     3    12   ar
     6     3    19   ar
     7     4    13   ar
     8     4    21   ar
     9     5    21    2
    10     6     7    1
    11     6     8    1
    12     6    22    1
    13     7    10    1
    14     7    11    1
    15     8     9    1
    16     8    23    1
    17     8    24    1
    18     9    12   ar
    19     9    13   ar
    20    10    27    1
    21    10    28    1
    22    10    29    1
    23    11    25    1
    24    11    26    1
    25    11    30    1
    26    12    14   ar
    27    13    15   ar
    28    14    16   ar
    29    14    17   ar
    30    15    16   ar
    31    15    18   ar
    32    16    31    1
    33    17    19   ar
    34    17    34    1
    35    18    20   ar
    36    18    35    1
    37    19    36    1
    38    20    21   ar
    39    20    37    1
