@<TRIPOS>MOLECULE
IMPHY006781
 43 44 0 0 0
SMALL
GASTEIGER

@<TRIPOS>ATOM
      1 O           2.0949   -0.9419    0.0000 O.3     1  UNL1       -0.4570
      2 O           5.4300   -0.7748    0.0000 O.3     1  UNL1       -0.4566
      3 O           2.0000   -2.7157    0.0000 O.2     1  UNL1       -0.2453
      4 O           5.4300   -2.5069    0.0000 O.2     1  UNL1       -0.2511
      5 C           3.6979   -0.7748    0.0000 C.3     1  UNL1        0.0683
      6 C           2.8319   -0.2748    0.0000 C.3     1  UNL1        0.1177
      7 C           4.5640   -0.2748    0.0000 C.3     1  UNL1        0.1318
      8 C           2.8319    0.7252    0.0000 C.3     1  UNL1        0.0060
      9 C           3.4887   -1.7467    0.0000 C.2     1  UNL1        0.0400
     10 C           3.6979    1.2252    0.0000 C.2     1  UNL1       -0.0730
     11 C           4.5640    0.7252    0.0000 C.2     1  UNL1       -0.0443
     12 C           2.5000   -1.8497    0.0000 C.2     1  UNL1        0.3354
     13 C           5.4300    1.2252    0.0000 C.2     1  UNL1       -0.0728
     14 C           5.4300    2.2252    0.0000 C.3     1  UNL1       -0.0284
     15 C           4.5640    2.7252    0.0000 C.3     1  UNL1       -0.0308
     16 C           3.6979    2.2252    0.0000 C.2     1  UNL1       -0.0846
     17 C           3.6949   -2.7252    0.0000 C.2     1  UNL1       -0.0882
     18 C           4.8853    0.2288    0.0000 C.3     1  UNL1       -0.0437
     19 C           6.2960    0.7252    0.0000 C.3     1  UNL1       -0.0437
     20 C           5.9301   -1.6408    0.0000 C.2     1  UNL1        0.3045
     21 C           6.9300   -1.6409    0.0000 C.3     1  UNL1        0.0333
     22 H           4.1990   -1.1399    0.0000 H       1  UNL1        0.0427
     23 H           2.2652   -0.0234    0.0000 H       1  UNL1        0.0744
     24 H           5.1009    0.0352    0.0000 H       1  UNL1        0.0787
     25 H           2.6198    1.3078    0.0000 H       1  UNL1        0.0346
     26 H           2.2213    0.6175    0.0000 H       1  UNL1        0.0346
     27 H           4.3519    1.3078    0.0000 H       1  UNL1        0.0608
     28 H           6.0406    2.1175    0.0000 H       1  UNL1        0.0313
     29 H           5.6420    2.8078    0.0000 H       1  UNL1        0.0313
     30 H           4.9625    3.2001    0.0000 H       1  UNL1        0.0310
     31 H           4.1654    3.2001    0.0000 H       1  UNL1        0.0310
     32 H           3.1610    2.5352    0.0000 H       1  UNL1        0.0572
     33 H           3.2335   -3.1392    0.0000 H       1  UNL1        0.0540
     34 H           4.2843   -2.9178    0.0000 H       1  UNL1        0.0540
     35 H           4.4868   -0.2461    0.0000 H       1  UNL1        0.0274
     36 H           5.3602   -0.1697    0.0000 H       1  UNL1        0.0274
     37 H           5.2838    0.7038    0.0000 H       1  UNL1        0.0274
     38 H           5.9860    0.1882    0.0000 H       1  UNL1        0.0274
     39 H           6.8329    0.4152    0.0000 H       1  UNL1        0.0274
     40 H           6.6060    1.2621    0.0000 H       1  UNL1        0.0274
     41 H           6.9300   -2.2609    0.0000 H       1  UNL1        0.0342
     42 H           7.5500   -1.6409    0.0000 H       1  UNL1        0.0342
     43 H           6.9300   -1.0209    0.0000 H       1  UNL1        0.0342
@<TRIPOS>BOND
     1     1     6    1
     2     1    12    1
     3     7     2    1
     4     2    20    1
     5     3    12    2
     6     4    20    2
     7     5     6    1
     8     5     7    1
     9     5     9    1
    10     5    22    1
    11     6     8    1
    12     6    23    1
    13     7    11    1
    14     7    24    1
    15     8    10    1
    16     8    25    1
    17     8    26    1
    18     9    12    1
    19     9    17    2
    20    10    16    2
    21    10    18    1
    22    11    13    2
    23    11    27    1
    24    13    14    1
    25    13    19    1
    26    14    15    1
    27    14    28    1
    28    14    29    1
    29    15    16    1
    30    15    30    1
    31    15    31    1
    32    16    32    1
    33    17    33    1
    34    17    34    1
    35    18    35    1
    36    18    36    1
    37    18    37    1
    38    19    38    1
    39    19    39    1
    40    19    40    1
    41    20    21    1
    42    21    41    1
    43    21    42    1
    44    21    43    1
