@<TRIPOS>MOLECULE
IMPHY015118
 39 41 0 0 0
SMALL
GASTEIGER

@<TRIPOS>ATOM
      1 C           2.9986   -0.0572    0.0000 C.3     1  UNL1       -0.0219
      2 C           5.8153    0.0280    0.0000 C.3     1  UNL1       -0.0273
      3 C           4.6752    0.9851    0.0000 C.3     1  UNL1       -0.0280
      4 C           4.4164    0.0192    0.0000 C.3     1  UNL1       -0.0111
      5 C           5.3659   -0.8607    0.0000 C.3     1  UNL1       -0.0350
      6 C           3.5009   -0.9171    0.0000 C.3     1  UNL1       -0.0465
      7 C           4.4439   -1.2372    0.0000 C.3     1  UNL1       -0.0492
      8 C           4.5967    2.4459    0.0000 C.3     1  UNL1       -0.0309
      9 C           3.1954    1.6369    0.0000 C.2     1  UNL1       -0.0726
     10 C           2.0000   -0.1109    0.0000 C.3     1  UNL1       -0.0587
     11 C           6.0440   -1.5957    0.0000 C.3     1  UNL1       -0.0436
     12 C           3.6022    2.5504    0.0000 C.2     1  UNL1       -0.0844
     13 C           2.2173    1.4290    0.0000 C.3     1  UNL1       -0.0435
     14 C           7.0195   -1.3760    0.0000 C.3     1  UNL1       -0.0624
     15 C           5.7465   -2.5504    0.0000 C.3     1  UNL1       -0.0624
     16 H           6.4227    0.1525    0.0000 H       1  UNL1        0.0312
     17 H           5.2299    1.2621    0.0000 H       1  UNL1        0.0312
     18 H           3.8542    0.2806    0.0000 H       1  UNL1        0.0354
     19 H           5.9800   -0.7751    0.0000 H       1  UNL1        0.0306
     20 H           2.8991   -1.0665    0.0000 H       1  UNL1        0.0271
     21 H           3.4749   -1.5365    0.0000 H       1  UNL1        0.0271
     22 H           4.0874   -1.7445    0.0000 H       1  UNL1        0.0268
     23 H           4.8304   -1.7220    0.0000 H       1  UNL1        0.0268
     24 H           5.2167    2.4464    0.0000 H       1  UNL1        0.0310
     25 H           4.6289    3.0650    0.0000 H       1  UNL1        0.0310
     26 H           1.9667    0.5082    0.0000 H       1  UNL1        0.0235
     27 H           1.3809   -0.1443    0.0000 H       1  UNL1        0.0235
     28 H           2.0333   -0.7300    0.0000 H       1  UNL1        0.0235
     29 H           5.4391   -1.7319    0.0000 H       1  UNL1        0.0298
     30 H           3.2922    3.0873    0.0000 H       1  UNL1        0.0572
     31 H           2.0884    2.0354    0.0000 H       1  UNL1        0.0274
     32 H           1.6108    1.3000    0.0000 H       1  UNL1        0.0274
     33 H           2.3462    0.8225    0.0000 H       1  UNL1        0.0274
     34 H           7.1557   -1.9808    0.0000 H       1  UNL1        0.0232
     35 H           7.6244   -1.2397    0.0000 H       1  UNL1        0.0232
     36 H           6.8833   -0.7711    0.0000 H       1  UNL1        0.0232
     37 H           5.1545   -2.3660    0.0000 H       1  UNL1        0.0232
     38 H           5.5620   -3.1423    0.0000 H       1  UNL1        0.0232
     39 H           6.3384   -2.7349    0.0000 H       1  UNL1        0.0232
@<TRIPOS>BOND
     1     1     3    1
     2     1     4    1
     3     1     6    1
     4     1    10    1
     5     2     3    1
     6     2     4    1
     7     2     5    1
     8     2    16    1
     9     3     8    1
    10     3    17    1
    11     4     9    1
    12     4    18    1
    13     5     7    1
    14     5    11    1
    15     5    19    1
    16     6     7    1
    17     6    20    1
    18     6    21    1
    19     7    22    1
    20     7    23    1
    21     8    12    1
    22     8    24    1
    23     8    25    1
    24     9    12    2
    25     9    13    1
    26    10    26    1
    27    10    27    1
    28    10    28    1
    29    11    14    1
    30    11    15    1
    31    11    29    1
    32    12    30    1
    33    13    31    1
    34    13    32    1
    35    13    33    1
    36    14    34    1
    37    14    35    1
    38    14    36    1
    39    15    37    1
    40    15    38    1
    41    15    39    1
