@<TRIPOS>MOLECULE
IMPHY017611
 44 45 0 0 0
SMALL
GASTEIGER

@<TRIPOS>ATOM
      1 O           4.4394    0.1222    0.0000 O.3     1  UNL1       -0.4602
      2 O           5.3573   -1.3466    0.0000 O.2     1  UNL1       -0.2508
      3 C           7.8726    2.5260    0.0000 C.3     1  UNL1       -0.0251
      4 C           6.7324    3.4831    0.0000 C.3     1  UNL1       -0.0313
      5 C           6.4736    2.5172    0.0000 C.3     1  UNL1       -0.0111
      6 C           5.9958    4.4657    0.0000 C.3     1  UNL1       -0.0423
      7 C           4.6992    3.1720    0.0000 C.3     1  UNL1       -0.0310
      8 C           5.2526    1.6515    0.0000 C.2     1  UNL1       -0.0329
      9 C           8.3726    1.6600    0.0000 C.3     1  UNL1       -0.0590
     10 C           8.7386    3.0260    0.0000 C.3     1  UNL1       -0.0590
     11 C           4.4236    2.2107    0.0000 C.2     1  UNL1       -0.0810
     12 C           5.2875    0.6521    0.0000 C.3     1  UNL1        0.1139
     13 C           4.4744   -0.8772    0.0000 C.2     1  UNL1        0.3074
     14 C           3.6263   -1.4071    0.0000 C.3     1  UNL1        0.0449
     15 C           3.6612   -2.4065    0.0000 C.3     1  UNL1       -0.0430
     16 C           2.8131   -2.9364    0.0000 C.3     1  UNL1       -0.0528
     17 C           2.8481   -3.9358    0.0000 C.3     1  UNL1       -0.0559
     18 C           2.0000   -4.4657    0.0000 C.3     1  UNL1       -0.0653
     19 H           7.1828    3.9093    0.0000 H       1  UNL1        0.0309
     20 H           6.6636    1.9270    0.0000 H       1  UNL1        0.0352
     21 H           6.3136    4.9981    0.0000 H       1  UNL1        0.0274
     22 H           5.3827    4.5577    0.0000 H       1  UNL1        0.0274
     23 H           4.6941    3.7920    0.0000 H       1  UNL1        0.0310
     24 H           4.0849    3.2558    0.0000 H       1  UNL1        0.0310
     25 H           7.8356    1.3500    0.0000 H       1  UNL1        0.0235
     26 H           8.6826    1.1230    0.0000 H       1  UNL1        0.0235
     27 H           8.9095    1.9700    0.0000 H       1  UNL1        0.0235
     28 H           9.0486    2.4891    0.0000 H       1  UNL1        0.0235
     29 H           9.2755    3.3360    0.0000 H       1  UNL1        0.0235
     30 H           8.4286    3.5629    0.0000 H       1  UNL1        0.0235
     31 H           3.8410    1.9987    0.0000 H       1  UNL1        0.0573
     32 H           5.5198    0.0773    0.0000 H       1  UNL1        0.0745
     33 H           5.8940    0.7810    0.0000 H       1  UNL1        0.0745
     34 H           3.3940   -0.8322    0.0000 H       1  UNL1        0.0377
     35 H           3.0198   -1.5360    0.0000 H       1  UNL1        0.0377
     36 H           3.8934   -2.9814    0.0000 H       1  UNL1        0.0270
     37 H           4.2676   -2.2776    0.0000 H       1  UNL1        0.0270
     38 H           2.5809   -2.3616    0.0000 H       1  UNL1        0.0265
     39 H           2.2067   -3.0653    0.0000 H       1  UNL1        0.0265
     40 H           3.0803   -4.5107    0.0000 H       1  UNL1        0.0263
     41 H           3.4545   -3.8069    0.0000 H       1  UNL1        0.0263
     42 H           1.6714   -3.9399    0.0000 H       1  UNL1        0.0230
     43 H           1.4742   -4.7943    0.0000 H       1  UNL1        0.0230
     44 H           2.3286   -4.9915    0.0000 H       1  UNL1        0.0230
@<TRIPOS>BOND
     1     1    12    1
     2     1    13    1
     3     2    13    2
     4     3     4    1
     5     3     5    1
     6     3     9    1
     7     3    10    1
     8     4     6    1
     9     4     7    1
    10     4    19    1
    11     5     6    1
    12     5     8    1
    13     5    20    1
    14     6    21    1
    15     6    22    1
    16     7    11    1
    17     7    23    1
    18     7    24    1
    19     8    11    2
    20     8    12    1
    21     9    25    1
    22     9    26    1
    23     9    27    1
    24    10    28    1
    25    10    29    1
    26    10    30    1
    27    11    31    1
    28    12    32    1
    29    12    33    1
    30    13    14    1
    31    14    15    1
    32    14    34    1
    33    14    35    1
    34    15    16    1
    35    15    36    1
    36    15    37    1
    37    16    17    1
    38    16    38    1
    39    16    39    1
    40    17    18    1
    41    17    40    1
    42    17    41    1
    43    18    42    1
    44    18    43    1
    45    18    44    1
