@<TRIPOS>MOLECULE
IMPHY003636
 157 165 0 0 0
SMALL
GASTEIGER

@<TRIPOS>ATOM
      1 O          10.8882    3.0909    0.0000 O.3     1  UNL1       -0.3450
      2 O           9.3592    4.3229    0.0000 O.3     1  UNL1       -0.3642
      3 O           9.4651   -5.1532    0.0000 O.3     1  UNL1       -0.3451
      4 O           7.7331   -5.1532    0.0000 O.3     1  UNL1       -0.3405
      5 O          13.5227    6.1903    0.0000 O.3     1  UNL1       -0.3484
      6 O           9.4651   -7.1532    0.0000 O.3     1  UNL1       -0.3378
      7 O           7.7331   -8.1532    0.0000 O.3     1  UNL1       -0.3864
      8 O           6.0010   -7.1532    0.0000 O.3     1  UNL1       -0.3401
      9 O          15.0253    5.3287    0.0000 O.3     1  UNL1       -0.3405
     10 O          10.3312   -5.6532    0.0000 O.3     1  UNL1       -0.3431
     11 O           6.0010   -4.1532    0.0000 O.3     1  UNL1       -0.3924
     12 O          14.5176    7.9253    0.0000 O.3     1  UNL1       -0.3841
     13 O           5.1350   -5.6532    0.0000 O.3     1  UNL1       -0.3431
     14 O          11.1972   -8.1532    0.0000 O.3     1  UNL1       -0.3841
     15 O          16.5176    7.9313    0.0000 O.3     1  UNL1       -0.3864
     16 O          17.5227    6.2022    0.0000 O.3     1  UNL1       -0.3865
     17 O          12.9292   -7.1532    0.0000 O.3     1  UNL1       -0.3864
     18 O           4.2690   -8.1532    0.0000 O.3     1  UNL1       -0.3841
     19 O          12.9292   -5.1532    0.0000 O.3     1  UNL1       -0.3866
     20 O          17.5279    4.4702    0.0000 O.3     1  UNL1       -0.3924
     21 O           2.5369   -7.1532    0.0000 O.3     1  UNL1       -0.3864
     22 O           2.5369   -5.1532    0.0000 O.3     1  UNL1       -0.3866
     23 C           9.4944    1.0437    0.0000 C.3     1  UNL1       -0.0233
     24 C          10.3623    0.5471    0.0000 C.3     1  UNL1       -0.0295
     25 C           9.6999    2.0163    0.0000 C.3     1  UNL1       -0.0015
     26 C          10.3662   -0.4529    0.0000 C.3     1  UNL1       -0.0306
     27 C          10.6882    2.1232    0.0000 C.3     1  UNL1        0.0660
     28 C           9.5021   -0.9563    0.0000 C.3     1  UNL1       -0.0285
     29 C          11.0968    1.2170    0.0000 C.3     1  UNL1       -0.0226
     30 C           8.6303    0.5404    0.0000 C.3     1  UNL1       -0.0467
     31 C           9.2976    2.9189    0.0000 C.3     1  UNL1        0.0158
     32 C           8.6342   -0.4596    0.0000 C.3     1  UNL1       -0.0486
     33 C           9.4901   -1.9978    0.0000 C.3     1  UNL1       -0.0078
     34 C          10.0305    3.5817    0.0000 C.3     1  UNL1        0.1704
     35 C           8.6264    1.5404    0.0000 C.3     1  UNL1       -0.0590
     36 C          11.2781   -0.9563    0.0000 C.3     1  UNL1       -0.0311
     37 C          10.3901   -2.5221    0.0000 C.2     1  UNL1       -0.0648
     38 C           8.5402   -2.5221    0.0000 C.3     1  UNL1       -0.0413
     39 C          11.2902   -1.9978    0.0000 C.2     1  UNL1       -0.0839
     40 C           8.3192    3.1256    0.0000 C.3     1  UNL1       -0.0572
     41 C           8.6260   -1.4945    0.0000 C.3     1  UNL1       -0.0556
     42 C          10.5279    4.4492    0.0000 C.3     1  UNL1        0.0018
     43 C          10.4027   -3.6070    0.0000 C.3     1  UNL1       -0.0047
     44 C           8.5276   -3.6070    0.0000 C.3     1  UNL1       -0.0254
     45 C           9.4651   -4.1532    0.0000 C.3     1  UNL1        0.0655
     46 C          11.5279    4.4522    0.0000 C.3     1  UNL1       -0.0435
     47 C          12.0253    5.3198    0.0000 C.3     1  UNL1       -0.0201
     48 C           8.5991   -5.6532    0.0000 C.3     1  UNL1        0.1886
     49 C          13.0253    5.3227    0.0000 C.3     1  UNL1        0.0533
     50 C          11.5228    6.1843    0.0000 C.3     1  UNL1       -0.0603
     51 C           8.5991   -6.6532    0.0000 C.3     1  UNL1        0.1406
     52 C           7.7331   -7.1532    0.0000 C.3     1  UNL1        0.1148
     53 C           6.8671   -5.6532    0.0000 C.3     1  UNL1        0.1134
     54 C           6.8671   -6.6532    0.0000 C.3     1  UNL1        0.1184
     55 C          14.5227    6.1932    0.0000 C.3     1  UNL1        0.1879
     56 C           6.0010   -5.1532    0.0000 C.3     1  UNL1        0.0730
     57 C          10.3312   -6.6532    0.0000 C.3     1  UNL1        0.1884
     58 C          15.0202    7.0608    0.0000 C.3     1  UNL1        0.1341
     59 C          11.1972   -7.1532    0.0000 C.3     1  UNL1        0.1341
     60 C           5.1350   -6.6532    0.0000 C.3     1  UNL1        0.1883
     61 C          16.0201    7.0638    0.0000 C.3     1  UNL1        0.1141
     62 C          16.0253    5.3317    0.0000 C.3     1  UNL1        0.1130
     63 C          16.5227    6.1992    0.0000 C.3     1  UNL1        0.1119
     64 C          12.0632   -6.6532    0.0000 C.3     1  UNL1        0.1140
     65 C          11.1972   -5.1532    0.0000 C.3     1  UNL1        0.0873
     66 C           4.2690   -7.1532    0.0000 C.3     1  UNL1        0.1341
     67 C          12.0632   -5.6532    0.0000 C.3     1  UNL1        0.1095
     68 C          16.5279    4.4672    0.0000 C.3     1  UNL1        0.0730
     69 C           3.4030   -6.6532    0.0000 C.3     1  UNL1        0.1140
     70 C           4.2690   -5.1532    0.0000 C.3     1  UNL1        0.0873
     71 C           3.4030   -5.6532    0.0000 C.3     1  UNL1        0.1095
     72 C          11.1972   -4.1532    0.0000 C.3     1  UNL1       -0.0361
     73 C           4.2690   -4.1532    0.0000 C.3     1  UNL1       -0.0361
     74 H          11.1406    0.2053    0.0000 H       1  UNL1        0.0310
     75 H           8.8546    1.9268    0.0000 H       1  UNL1        0.0335
     76 H          11.0974   -0.0194    0.0000 H       1  UNL1        0.0310
     77 H          11.5330    2.2164    0.0000 H       1  UNL1        0.0600
     78 H          10.2366   -1.3841    0.0000 H       1  UNL1        0.0312
     79 H          11.4642    0.7175    0.0000 H       1  UNL1        0.0293
     80 H          11.6321    1.5298    0.0000 H       1  UNL1        0.0293
     81 H           8.4160    1.1222    0.0000 H       1  UNL1        0.0271
     82 H           8.0201    0.4304    0.0000 H       1  UNL1        0.0271
     83 H           8.9078    2.4368    0.0000 H       1  UNL1        0.0354
     84 H           8.0232   -0.3543    0.0000 H       1  UNL1        0.0268
     85 H           8.4244   -1.0430    0.0000 H       1  UNL1        0.0268
     86 H           8.9344    2.0785    0.0000 H       1  UNL1        0.0235
     87 H           8.0883    1.8483    0.0000 H       1  UNL1        0.0235
     88 H           8.3185    1.0022    0.0000 H       1  UNL1        0.0235
     89 H          11.8902   -1.0553    0.0000 H       1  UNL1        0.0310
     90 H          11.4804   -0.3702    0.0000 H       1  UNL1        0.0310
     91 H           8.3379   -1.9360    0.0000 H       1  UNL1        0.0274
     92 H           7.9281   -2.6211    0.0000 H       1  UNL1        0.0274
     93 H          11.8295   -2.3037    0.0000 H       1  UNL1        0.0572
     94 H           8.4473    3.7322    0.0000 H       1  UNL1        0.0234
     95 H           7.7125    3.2538    0.0000 H       1  UNL1        0.0234
     96 H           8.1910    2.5190    0.0000 H       1  UNL1        0.0234
     97 H           8.9380   -0.9588    0.0000 H       1  UNL1        0.0238
     98 H           8.0902   -1.1824    0.0000 H       1  UNL1        0.0238
     99 H           8.3139   -2.0302    0.0000 H       1  UNL1        0.0238
    100 H          10.6338    5.0602    0.0000 H       1  UNL1        0.0317
    101 H           9.9447    4.6596    0.0000 H       1  UNL1        0.0317
    102 H          10.6185   -4.1883    0.0000 H       1  UNL1        0.0335
    103 H          11.0123   -3.4939    0.0000 H       1  UNL1        0.0335
    104 H           7.9180   -3.4939    0.0000 H       1  UNL1        0.0290
    105 H           8.3118   -4.1883    0.0000 H       1  UNL1        0.0290
    106 H          10.0027   -4.4621    0.0000 H       1  UNL1        0.0600
    107 H           9.5490    4.9131    0.0000 H       1  UNL1        0.2128
    108 H          11.4221    3.8413    0.0000 H       1  UNL1        0.0270
    109 H          12.1112    4.2419    0.0000 H       1  UNL1        0.0270
    110 H          11.4053    5.3179    0.0000 H       1  UNL1        0.0320
    111 H           8.5991   -5.0332    0.0000 H       1  UNL1        0.0938
    112 H          12.9195    4.7118    0.0000 H       1  UNL1        0.0563
    113 H          13.6086    5.1124    0.0000 H       1  UNL1        0.0563
    114 H          12.0588    6.4959    0.0000 H       1  UNL1        0.0233
    115 H          11.2112    6.7203    0.0000 H       1  UNL1        0.0233
    116 H          10.9868    5.8727    0.0000 H       1  UNL1        0.0233
    117 H           8.5991   -7.2732    0.0000 H       1  UNL1        0.0675
    118 H           7.1962   -7.4632    0.0000 H       1  UNL1        0.0648
    119 H           6.8671   -5.0332    0.0000 H       1  UNL1        0.0647
    120 H           6.3301   -6.3431    0.0000 H       1  UNL1        0.0651
    121 H          14.2144    5.6554    0.0000 H       1  UNL1        0.0937
    122 H           5.3905   -5.0455    0.0000 H       1  UNL1        0.0584
    123 H           5.7890   -5.7358    0.0000 H       1  UNL1        0.0584
    124 H           9.7942   -6.3431    0.0000 H       1  UNL1        0.0938
    125 H           7.1962   -8.4632    0.0000 H       1  UNL1        0.2100
    126 H          14.4002    7.0589    0.0000 H       1  UNL1        0.0671
    127 H          11.7341   -7.4632    0.0000 H       1  UNL1        0.0671
    128 H           5.1350   -7.2732    0.0000 H       1  UNL1        0.0938
    129 H          16.6401    7.0656    0.0000 H       1  UNL1        0.0648
    130 H          15.7169    4.7938    0.0000 H       1  UNL1        0.0647
    131 H          16.8343    5.6632    0.0000 H       1  UNL1        0.0647
    132 H           5.4641   -3.8432    0.0000 H       1  UNL1        0.2095
    133 H          12.6002   -6.3431    0.0000 H       1  UNL1        0.0648
    134 H          10.6603   -4.8431    0.0000 H       1  UNL1        0.0621
    135 H           3.7320   -7.4632    0.0000 H       1  UNL1        0.0671
    136 H          12.0632   -5.0332    0.0000 H       1  UNL1        0.0646
    137 H          14.8260    8.4632    0.0000 H       1  UNL1        0.2101
    138 H          15.9459    4.2534    0.0000 H       1  UNL1        0.0584
    139 H          16.6374    3.8569    0.0000 H       1  UNL1        0.0584
    140 H           2.8660   -6.3431    0.0000 H       1  UNL1        0.0648
    141 H          11.7341   -8.4632    0.0000 H       1  UNL1        0.2101
    142 H           4.8059   -4.8431    0.0000 H       1  UNL1        0.0621
    143 H          17.1376    7.9331    0.0000 H       1  UNL1        0.2100
    144 H           3.4030   -5.0332    0.0000 H       1  UNL1        0.0646
    145 H          11.8172   -4.1532    0.0000 H       1  UNL1        0.0255
    146 H          11.1972   -3.5332    0.0000 H       1  UNL1        0.0255
    147 H          10.5772   -4.1532    0.0000 H       1  UNL1        0.0255
    148 H          17.8311    6.7401    0.0000 H       1  UNL1        0.2100
    149 H          13.4662   -6.8432    0.0000 H       1  UNL1        0.2100
    150 H           3.7320   -8.4632    0.0000 H       1  UNL1        0.2101
    151 H          13.4662   -5.4632    0.0000 H       1  UNL1        0.2100
    152 H           4.8890   -4.1532    0.0000 H       1  UNL1        0.0255
    153 H           4.2690   -3.5332    0.0000 H       1  UNL1        0.0255
    154 H           3.6490   -4.1532    0.0000 H       1  UNL1        0.0255
    155 H          17.8395    3.9342    0.0000 H       1  UNL1        0.2095
    156 H           2.0000   -6.8432    0.0000 H       1  UNL1        0.2100
    157 H           2.5369   -4.5332    0.0000 H       1  UNL1        0.2100
@<TRIPOS>BOND
     1     1    27    1
     2     1    34    1
     3    34     2    1
     4     2   107    1
     5    45     3    1
     6    48     3    1
     7     4    48    1
     8     4    53    1
     9     5    49    1
    10    55     5    1
    11    51     6    1
    12    57     6    1
    13    52     7    1
    14     7   125    1
    15    54     8    1
    16    60     8    1
    17     9    55    1
    18     9    62    1
    19    10    57    1
    20    10    65    1
    21    11    56    1
    22    11   132    1
    23    58    12    1
    24    12   137    1
    25    13    60    1
    26    13    70    1
    27    59    14    1
    28    14   141    1
    29    61    15    1
    30    15   143    1
    31    63    16    1
    32    16   148    1
    33    64    17    1
    34    17   149    1
    35    66    18    1
    36    18   150    1
    37    67    19    1
    38    19   151    1
    39    20    68    1
    40    20   155    1
    41    69    21    1
    42    21   156    1
    43    71    22    1
    44    22   157    1
    45    23    24    1
    46    23    25    1
    47    23    30    1
    48    23    35    1
    49    24    26    1
    50    24    29    1
    51    24    74    1
    52    25    27    1
    53    25    31    1
    54    25    75    1
    55    26    28    1
    56    26    36    1
    57    26    76    1
    58    27    29    1
    59    27    77    1
    60    28    32    1
    61    28    33    1
    62    28    78    1
    63    29    79    1
    64    29    80    1
    65    30    32    1
    66    30    81    1
    67    30    82    1
    68    31    34    1
    69    31    40    1
    70    31    83    1
    71    32    84    1
    72    32    85    1
    73    33    37    1
    74    33    38    1
    75    33    41    1
    76    34    42    1
    77    35    86    1
    78    35    87    1
    79    35    88    1
    80    36    39    1
    81    36    89    1
    82    36    90    1
    83    37    39    2
    84    37    43    1
    85    38    44    1
    86    38    91    1
    87    38    92    1
    88    39    93    1
    89    40    94    1
    90    40    95    1
    91    40    96    1
    92    41    97    1
    93    41    98    1
    94    41    99    1
    95    42    46    1
    96    42   100    1
    97    42   101    1
    98    43    45    1
    99    43   102    1
   100    43   103    1
   101    44    45    1
   102    44   104    1
   103    44   105    1
   104    45   106    1
   105    46    47    1
   106    46   108    1
   107    46   109    1
   108    47    49    1
   109    47    50    1
   110    47   110    1
   111    48    51    1
   112    48   111    1
   113    49   112    1
   114    49   113    1
   115    50   114    1
   116    50   115    1
   117    50   116    1
   118    51    52    1
   119    51   117    1
   120    52    54    1
   121    52   118    1
   122    53    54    1
   123    53    56    1
   124    53   119    1
   125    54   120    1
   126    55    58    1
   127    55   121    1
   128    56   122    1
   129    56   123    1
   130    57    59    1
   131    57   124    1
   132    58    61    1
   133    58   126    1
   134    59    64    1
   135    59   127    1
   136    60    66    1
   137    60   128    1
   138    61    63    1
   139    61   129    1
   140    62    63    1
   141    62    68    1
   142    62   130    1
   143    63   131    1
   144    64    67    1
   145    64   133    1
   146    65    67    1
   147    65    72    1
   148    65   134    1
   149    66    69    1
   150    66   135    1
   151    67   136    1
   152    68   138    1
   153    68   139    1
   154    69    71    1
   155    69   140    1
   156    70    71    1
   157    70    73    1
   158    70   142    1
   159    71   144    1
   160    72   145    1
   161    72   146    1
   162    72   147    1
   163    73   152    1
   164    73   153    1
   165    73   154    1
