@<TRIPOS>MOLECULE
IMPHY013089
 52 55 0 0 0
SMALL
GASTEIGER

@<TRIPOS>ATOM
      1 O           3.8000    1.0204    0.0000 O.3     1  UNL1       -0.3649
      2 O           6.3981    0.5204    0.0000 O.3     1  UNL1       -0.3865
      3 O           6.3981    2.5204    0.0000 O.3     1  UNL1       -0.3865
      4 O           4.6660    3.5204    0.0000 O.3     1  UNL1       -0.3865
      5 O           2.9340    3.5204    0.0000 O.3     1  UNL1       -0.3924
      6 O           4.6660   -3.4796    0.0000 O.2     1  UNL1       -0.2864
      7 O           6.4144   -3.5142    0.0000 O.3     1  UNL1       -0.5060
      8 O           2.9176   -3.5142    0.0000 O.3     1  UNL1       -0.5060
      9 O           9.0641   -0.9521    0.0000 O.3     1  UNL1       -0.3904
     10 C           4.6660    0.5204    0.0000 C.3     1  UNL1        0.0983
     11 C           4.6660   -0.4796    0.0000 C.3     1  UNL1        0.0395
     12 C           5.5321    1.0204    0.0000 C.3     1  UNL1        0.1104
     13 C           5.5321    2.0204    0.0000 C.3     1  UNL1        0.1118
     14 C           4.6660    2.5204    0.0000 C.3     1  UNL1        0.1117
     15 C           3.8000    2.0204    0.0000 C.3     1  UNL1        0.1104
     16 C           5.5321   -0.9796    0.0000 C.ar    1  UNL1       -0.0227
     17 C           3.8000   -0.9796    0.0000 C.ar    1  UNL1       -0.0231
     18 C           5.5321   -1.9796    0.0000 C.ar    1  UNL1        0.0676
     19 C           2.9340    2.5204    0.0000 C.3     1  UNL1        0.0729
     20 C           3.8000   -1.9796    0.0000 C.ar    1  UNL1        0.0676
     21 C           4.6660   -2.4796    0.0000 C.2     1  UNL1        0.2007
     22 C           6.4260   -0.4449    0.0000 C.ar    1  UNL1       -0.0516
     23 C           2.9061   -0.4449    0.0000 C.ar    1  UNL1       -0.0570
     24 C           6.4260   -2.5143    0.0000 C.ar    1  UNL1        0.1283
     25 C           2.9061   -2.5143    0.0000 C.ar    1  UNL1        0.1279
     26 C           7.3321   -0.9588    0.0000 C.ar    1  UNL1       -0.0184
     27 C           7.3321   -2.0004    0.0000 C.ar    1  UNL1       -0.0141
     28 C           2.0000   -0.9588    0.0000 C.ar    1  UNL1       -0.0580
     29 C           2.0000   -2.0004    0.0000 C.ar    1  UNL1       -0.0194
     30 C           8.1962   -0.4555    0.0000 C.3     1  UNL1        0.0694
     31 H           3.9299    0.0954    0.0000 H       1  UNL1        0.0632
     32 H           5.4022   -0.0546    0.0000 H       1  UNL1        0.0424
     33 H           5.5321    0.4004    0.0000 H       1  UNL1        0.0646
     34 H           6.0690    1.7104    0.0000 H       1  UNL1        0.0647
     35 H           5.2030    2.8304    0.0000 H       1  UNL1        0.0647
     36 H           3.2631    1.7104    0.0000 H       1  UNL1        0.0646
     37 H           2.3234    2.6280    0.0000 H       1  UNL1        0.0584
     38 H           2.7219    1.9378    0.0000 H       1  UNL1        0.0584
     39 H           6.4188    0.1750    0.0000 H       1  UNL1        0.0624
     40 H           6.9350    0.8304    0.0000 H       1  UNL1        0.2100
     41 H           2.9132    0.1750    0.0000 H       1  UNL1        0.0621
     42 H           6.3981    3.1404    0.0000 H       1  UNL1        0.2100
     43 H           5.2030    3.8304    0.0000 H       1  UNL1        0.2100
     44 H           7.8678   -2.3125    0.0000 H       1  UNL1        0.0658
     45 H           1.4643   -0.6467    0.0000 H       1  UNL1        0.0619
     46 H           1.4643   -2.3125    0.0000 H       1  UNL1        0.0654
     47 H           2.3970    3.8304    0.0000 H       1  UNL1        0.2095
     48 H           8.5929    0.0210    0.0000 H       1  UNL1        0.0607
     49 H           7.7958    0.0179    0.0000 H       1  UNL1        0.0607
     50 H           6.9478   -3.8304    0.0000 H       1  UNL1        0.2922
     51 H           2.3843   -3.8304    0.0000 H       1  UNL1        0.2922
     52 H           9.5998   -0.6400    0.0000 H       1  UNL1        0.2098
@<TRIPOS>BOND
     1     1    10    1
     2     1    15    1
     3    12     2    1
     4     2    40    1
     5    13     3    1
     6     3    42    1
     7    14     4    1
     8     4    43    1
     9     5    19    1
    10     5    47    1
    11     6    21    2
    12     7    24    1
    13     7    50    1
    14     8    25    1
    15     8    51    1
    16     9    30    1
    17     9    52    1
    18    10    11    1
    19    10    12    1
    20    10    31    1
    21    11    16    1
    22    11    17    1
    23    11    32    1
    24    12    13    1
    25    12    33    1
    26    13    14    1
    27    13    34    1
    28    14    15    1
    29    14    35    1
    30    15    19    1
    31    15    36    1
    32    16    18   ar
    33    16    22   ar
    34    17    20   ar
    35    17    23   ar
    36    18    21    1
    37    18    24   ar
    38    19    37    1
    39    19    38    1
    40    20    21    1
    41    20    25   ar
    42    22    26   ar
    43    22    39    1
    44    23    28   ar
    45    23    41    1
    46    24    27   ar
    47    25    29   ar
    48    26    27   ar
    49    26    30    1
    50    27    44    1
    51    28    29   ar
    52    28    45    1
    53    29    46    1
    54    30    48    1
    55    30    49    1
