@<TRIPOS>MOLECULE
IMPHY009525
 88 94 0 0 0
SMALL
GASTEIGER

@<TRIPOS>ATOM
      1 O           7.9332   -2.8813    0.0000 O.3     1  UNL1       -0.3405
      2 O           6.2011   -2.8813    0.0000 O.3     1  UNL1       -0.3405
      3 O           7.0671   -0.3813    0.0000 O.3     1  UNL1       -0.3369
      4 O           9.6652   -1.8813    0.0000 O.3     1  UNL1       -0.3743
      5 O           7.9332    1.1187    0.0000 O.3     1  UNL1       -0.4598
      6 O           9.6652    0.1187    0.0000 O.3     1  UNL1       -0.3709
      7 O           7.9332   -4.8813    0.0000 O.3     1  UNL1       -0.3841
      8 O           6.2011   -5.8813    0.0000 O.3     1  UNL1       -0.3864
      9 O           4.4691   -4.8813    0.0000 O.3     1  UNL1       -0.3865
     10 O           3.6030   -3.3813    0.0000 O.3     1  UNL1       -0.3924
     11 O           5.0032    0.0438    0.0000 O.3     1  UNL1       -0.4562
     12 O           8.8531    4.6638    0.0000 O.3     1  UNL1       -0.4914
     13 O           3.6196    1.1578    0.0000 O.2     1  UNL1       -0.2449
     14 O           7.0792    5.6880    0.0000 O.3     1  UNL1       -0.4914
     15 O           3.3938    5.5905    0.0000 O.3     1  UNL1       -0.4526
     16 O           2.0000    4.7858    0.0000 O.3     1  UNL1       -0.4526
     17 C           7.9332   -1.8813    0.0000 C.3     1  UNL1        0.1138
     18 C           8.7992   -1.3813    0.0000 C.3     1  UNL1        0.1185
     19 C           7.0671   -3.3813    0.0000 C.3     1  UNL1        0.1884
     20 C           8.7992   -0.3813    0.0000 C.3     1  UNL1        0.1487
     21 C           7.0671   -4.3813    0.0000 C.3     1  UNL1        0.1341
     22 C           6.2011   -4.8813    0.0000 C.3     1  UNL1        0.1141
     23 C           5.3351   -4.3813    0.0000 C.3     1  UNL1        0.1119
     24 C           5.3351   -3.3813    0.0000 C.3     1  UNL1        0.1130
     25 C           7.9332    0.1187    0.0000 C.3     1  UNL1        0.2308
     26 C           7.0671   -1.3813    0.0000 C.3     1  UNL1        0.0806
     27 C           4.4691   -2.8813    0.0000 C.3     1  UNL1        0.0730
     28 C           7.0671    1.6187    0.0000 C.ar    1  UNL1        0.1390
     29 C           6.2011    1.1187    0.0000 C.ar    1  UNL1        0.0466
     30 C           7.0671    2.6187    0.0000 C.ar    1  UNL1        0.0286
     31 C           9.6652   -2.8813    0.0000 C.3     1  UNL1        0.0370
     32 C           5.3351    1.6187    0.0000 C.ar    1  UNL1        0.0772
     33 C           6.2011    3.1187    0.0000 C.ar    1  UNL1       -0.0022
     34 C           5.3351    2.6187    0.0000 C.ar    1  UNL1        0.0046
     35 C          10.5312   -0.3813    0.0000 C.3     1  UNL1        0.0372
     36 C           5.9919    0.1469    0.0000 C.3     1  UNL1        0.1220
     37 C           7.9771    3.1256    0.0000 C.ar    1  UNL1       -0.0051
     38 C           4.5981    0.9516    0.0000 C.2     1  UNL1        0.3406
     39 C           4.4691    3.1187    0.0000 C.ar    1  UNL1       -0.0128
     40 C           6.1851    4.1602    0.0000 C.ar    1  UNL1       -0.0079
     41 C           7.9852    4.1672    0.0000 C.ar    1  UNL1        0.1622
     42 C           7.0831    4.6880    0.0000 C.ar    1  UNL1        0.1621
     43 C           4.4691    4.1187    0.0000 C.ar    1  UNL1       -0.0084
     44 C           3.6030    2.6187    0.0000 C.ar    1  UNL1       -0.0503
     45 C           3.6030    4.6187    0.0000 C.ar    1  UNL1        0.1668
     46 C           2.7370    3.1187    0.0000 C.ar    1  UNL1       -0.0156
     47 C           2.7370    4.1187    0.0000 C.ar    1  UNL1        0.1663
     48 C           2.4051    5.6936    0.0000 C.3     1  UNL1        0.2332
     49 C           9.7172    4.1605    0.0000 C.3     1  UNL1        0.0790
     50 C           7.9433    6.1913    0.0000 C.3     1  UNL1        0.0790
     51 H           8.4701   -2.1913    0.0000 H       1  UNL1        0.0647
     52 H           9.3361   -1.0713    0.0000 H       1  UNL1        0.0651
     53 H           7.0671   -2.7613    0.0000 H       1  UNL1        0.0938
     54 H           8.7992    0.2387    0.0000 H       1  UNL1        0.0686
     55 H           7.0671   -5.0013    0.0000 H       1  UNL1        0.0671
     56 H           5.6642   -5.1913    0.0000 H       1  UNL1        0.0648
     57 H           4.7982   -4.0713    0.0000 H       1  UNL1        0.0647
     58 H           5.3351   -2.7613    0.0000 H       1  UNL1        0.0647
     59 H           7.3962    0.4287    0.0000 H       1  UNL1        0.1084
     60 H           6.4566   -1.2736    0.0000 H       1  UNL1        0.0588
     61 H           6.8551   -1.9639    0.0000 H       1  UNL1        0.0588
     62 H           4.8676   -2.4064    0.0000 H       1  UNL1        0.0584
     63 H           4.0705   -2.4064    0.0000 H       1  UNL1        0.0584
     64 H           8.4701   -4.5713    0.0000 H       1  UNL1        0.2101
     65 H           6.7380   -6.1913    0.0000 H       1  UNL1        0.2100
     66 H           4.4691   -5.5013    0.0000 H       1  UNL1        0.2100
     67 H           9.0452   -2.8813    0.0000 H       1  UNL1        0.0524
     68 H           9.6652   -3.5013    0.0000 H       1  UNL1        0.0524
     69 H          10.2852   -2.8813    0.0000 H       1  UNL1        0.0524
     70 H          10.2212   -0.9182    0.0000 H       1  UNL1        0.0524
     71 H          11.0682   -0.6913    0.0000 H       1  UNL1        0.0524
     72 H          10.8412    0.1556    0.0000 H       1  UNL1        0.0524
     73 H           5.9910   -0.4731    0.0000 H       1  UNL1        0.0750
     74 H           6.6084    0.0808    0.0000 H       1  UNL1        0.0750
     75 H           3.0661   -3.0713    0.0000 H       1  UNL1        0.2095
     76 H           8.5105    2.8094    0.0000 H       1  UNL1        0.0662
     77 H           5.6446    4.4640    0.0000 H       1  UNL1        0.0662
     78 H           5.0060    4.4287    0.0000 H       1  UNL1        0.0661
     79 H           3.6030    1.9987    0.0000 H       1  UNL1        0.0625
     80 H           2.2001    2.8087    0.0000 H       1  UNL1        0.0655
     81 H           2.5338    6.3001    0.0000 H       1  UNL1        0.1166
     82 H           1.8155    5.8853    0.0000 H       1  UNL1        0.1166
     83 H           9.4051    3.6247    0.0000 H       1  UNL1        0.0660
     84 H          10.2529    3.8484    0.0000 H       1  UNL1        0.0660
     85 H          10.0293    4.6962    0.0000 H       1  UNL1        0.0660
     86 H           8.2554    5.6556    0.0000 H       1  UNL1        0.0660
     87 H           8.4791    6.5034    0.0000 H       1  UNL1        0.0660
     88 H           7.6313    6.7270    0.0000 H       1  UNL1        0.0660
@<TRIPOS>BOND
     1    17     1    1
     2    19     1    1
     3     2    19    1
     4     2    24    1
     5     3    25    1
     6     3    26    1
     7    18     4    1
     8     4    31    1
     9    25     5    1
    10     5    28    1
    11    20     6    1
    12     6    35    1
    13    21     7    1
    14     7    64    1
    15    22     8    1
    16     8    65    1
    17    23     9    1
    18     9    66    1
    19    10    27    1
    20    10    75    1
    21    11    36    1
    22    11    38    1
    23    12    41    1
    24    12    49    1
    25    13    38    2
    26    14    42    1
    27    14    50    1
    28    15    45    1
    29    15    48    1
    30    16    47    1
    31    16    48    1
    32    17    18    1
    33    17    26    1
    34    17    51    1
    35    18    20    1
    36    18    52    1
    37    19    21    1
    38    19    53    1
    39    20    25    1
    40    20    54    1
    41    21    22    1
    42    21    55    1
    43    22    23    1
    44    22    56    1
    45    23    24    1
    46    23    57    1
    47    24    27    1
    48    24    58    1
    49    25    59    1
    50    26    60    1
    51    26    61    1
    52    27    62    1
    53    27    63    1
    54    28    29   ar
    55    28    30   ar
    56    29    32   ar
    57    29    36    1
    58    30    33   ar
    59    30    37   ar
    60    31    67    1
    61    31    68    1
    62    31    69    1
    63    32    34   ar
    64    32    38    1
    65    33    34   ar
    66    33    40   ar
    67    34    39    1
    68    35    70    1
    69    35    71    1
    70    35    72    1
    71    36    73    1
    72    36    74    1
    73    37    41   ar
    74    37    76    1
    75    39    43   ar
    76    39    44   ar
    77    40    42   ar
    78    40    77    1
    79    41    42   ar
    80    43    45   ar
    81    43    78    1
    82    44    46   ar
    83    44    79    1
    84    45    47   ar
    85    46    47   ar
    86    46    80    1
    87    48    81    1
    88    48    82    1
    89    49    83    1
    90    49    84    1
    91    49    85    1
    92    50    86    1
    93    50    87    1
    94    50    88    1
