@<TRIPOS>MOLECULE
IMPHY017601
 40 42 0 0 0
SMALL
GASTEIGER

@<TRIPOS>ATOM
      1 O           3.0434    1.6644    0.0000 O.2     1  UNL1       -0.2968
      2 C           3.8660   -0.6419    0.0000 C.3     1  UNL1       -0.0166
      3 C           3.0000   -0.1419    0.0000 C.3     1  UNL1       -0.0287
      4 C           3.0000    0.8581    0.0000 C.3     1  UNL1       -0.0195
      5 C           3.8660    1.3581    0.0000 C.3     1  UNL1        0.0316
      6 C           3.6568   -1.6138    0.0000 C.3     1  UNL1       -0.0376
      7 C           4.7320   -0.1419    0.0000 C.3     1  UNL1       -0.0456
      8 C           3.4660   -0.0419    0.0000 C.3     1  UNL1        0.0126
      9 C           2.2630   -0.8090    0.0000 C.3     1  UNL1       -0.0489
     10 C           4.7320    0.8581    0.0000 C.3     1  UNL1       -0.0399
     11 C           2.6681   -1.7168    0.0000 C.3     1  UNL1       -0.0497
     12 C           3.4660    0.7581    0.0000 C.2     1  UNL1        0.1402
     13 C           2.2340    1.5008    0.0000 C.3     1  UNL1       -0.0587
     14 C           2.0000    0.8581    0.0000 C.3     1  UNL1       -0.0587
     15 C           3.8660    2.3581    0.0000 C.3     1  UNL1       -0.0523
     16 C           4.3247   -2.3581    0.0000 C.3     1  UNL1       -0.0619
     17 H           2.4333    0.1095    0.0000 H       1  UNL1        0.0312
     18 H           4.2560   -1.4546    0.0000 H       1  UNL1        0.0304
     19 H           4.9441   -0.7246    0.0000 H       1  UNL1        0.0271
     20 H           5.3426   -0.0343    0.0000 H       1  UNL1        0.0271
     21 H           2.8790    0.1576    0.0000 H       1  UNL1        0.0347
     22 H           4.0594    0.1377    0.0000 H       1  UNL1        0.0347
     23 H           1.8976   -0.3082    0.0000 H       1  UNL1        0.0268
     24 H           1.7265   -1.1198    0.0000 H       1  UNL1        0.0268
     25 H           5.3426    0.7504    0.0000 H       1  UNL1        0.0275
     26 H           4.9441    1.4407    0.0000 H       1  UNL1        0.0275
     27 H           2.0785   -1.9086    0.0000 H       1  UNL1        0.0268
     28 H           2.7968   -2.3233    0.0000 H       1  UNL1        0.0268
     29 H           2.6325    1.9758    0.0000 H       1  UNL1        0.0235
     30 H           1.7590    1.8994    0.0000 H       1  UNL1        0.0235
     31 H           1.8354    1.0259    0.0000 H       1  UNL1        0.0235
     32 H           2.0000    1.4781    0.0000 H       1  UNL1        0.0235
     33 H           1.3800    0.8581    0.0000 H       1  UNL1        0.0235
     34 H           2.0000    0.2381    0.0000 H       1  UNL1        0.0235
     35 H           4.4860    2.3581    0.0000 H       1  UNL1        0.0239
     36 H           3.8660    2.9781    0.0000 H       1  UNL1        0.0239
     37 H           3.2460    2.3581    0.0000 H       1  UNL1        0.0239
     38 H           3.8632   -2.7721    0.0000 H       1  UNL1        0.0233
     39 H           4.7387   -2.8195    0.0000 H       1  UNL1        0.0233
     40 H           4.7861   -1.9440    0.0000 H       1  UNL1        0.0233
@<TRIPOS>BOND
     1     1    12    2
     2     2     3    1
     3     2     6    1
     4     2     7    1
     5     2     8    1
     6     3     4    1
     7     3     9    1
     8     3    17    1
     9     4     5    1
    10     4    13    1
    11     4    14    1
    12     5    10    1
    13     5    12    1
    14     5    15    1
    15     6    11    1
    16     6    16    1
    17     6    18    1
    18     7    10    1
    19     7    19    1
    20     7    20    1
    21     8    12    1
    22     8    21    1
    23     8    22    1
    24     9    11    1
    25     9    23    1
    26     9    24    1
    27    10    25    1
    28    10    26    1
    29    11    27    1
    30    11    28    1
    31    13    29    1
    32    13    30    1
    33    13    31    1
    34    14    32    1
    35    14    33    1
    36    14    34    1
    37    15    35    1
    38    15    36    1
    39    15    37    1
    40    16    38    1
    41    16    39    1
    42    16    40    1
