@<TRIPOS>MOLECULE
IMPHY015731
 67 66 0 0 0
SMALL
GASTEIGER

@<TRIPOS>ATOM
      1 SI          6.3301    0.0000    0.0000 Si      1  UNL1        0.0000
      2 SI          8.0622    0.0000    0.0000 Si      1  UNL1        0.0000
      3 SI          4.5981    0.0000    0.0000 Si      1  UNL1        0.0000
      4 SI          9.7942   -0.0000    0.0000 Si      1  UNL1        0.0000
      5 SI          2.8660    0.0000    0.0000 Si      1  UNL1        0.0000
      6 SI         11.5263   -0.0000    0.0000 Si      1  UNL1        0.0000
      7 O           7.1962    0.5000    0.0000 O.3     1  UNL1        0.0000
      8 O           5.4641   -0.5000    0.0000 O.3     1  UNL1        0.0000
      9 O           8.9282   -0.5000    0.0000 O.3     1  UNL1        0.0000
     10 O           3.7320    0.5000    0.0000 O.3     1  UNL1        0.0000
     11 O          10.6603    0.5000    0.0000 O.3     1  UNL1        0.0000
     12 C           5.8301    0.8660    0.0000 C.3     1  UNL1        0.0000
     13 C           6.8301   -0.8660    0.0000 C.3     1  UNL1        0.0000
     14 C           8.5622    0.8660    0.0000 C.3     1  UNL1        0.0000
     15 C           7.5622   -0.8660    0.0000 C.3     1  UNL1        0.0000
     16 C           4.0981   -0.8660    0.0000 C.3     1  UNL1        0.0000
     17 C           5.0981    0.8660    0.0000 C.3     1  UNL1        0.0000
     18 C          10.2942   -0.8660    0.0000 C.3     1  UNL1        0.0000
     19 C           9.2942    0.8660    0.0000 C.3     1  UNL1        0.0000
     20 C           2.0000   -0.5000    0.0000 C.3     1  UNL1        0.0000
     21 C           2.3660    0.8660    0.0000 C.3     1  UNL1        0.0000
     22 C           3.3660   -0.8660    0.0000 C.3     1  UNL1        0.0000
     23 C          12.3923   -0.5000    0.0000 C.3     1  UNL1        0.0000
     24 C          12.0263    0.8660    0.0000 C.3     1  UNL1        0.0000
     25 C          11.0263   -0.8660    0.0000 C.3     1  UNL1        0.0000
     26 H           6.3671    1.1760    0.0000 H       1  UNL1        0.0000
     27 H           5.5201    1.4030    0.0000 H       1  UNL1        0.0000
     28 H           5.2932    0.5560    0.0000 H       1  UNL1        0.0000
     29 H           6.2932   -1.1760    0.0000 H       1  UNL1        0.0000
     30 H           7.1401   -1.4030    0.0000 H       1  UNL1        0.0000
     31 H           7.3671   -0.5560    0.0000 H       1  UNL1        0.0000
     32 H           9.0991    0.5560    0.0000 H       1  UNL1        0.0000
     33 H           8.8722    1.4030    0.0000 H       1  UNL1        0.0000
     34 H           8.0252    1.1760    0.0000 H       1  UNL1        0.0000
     35 H           7.0252   -0.5560    0.0000 H       1  UNL1        0.0000
     36 H           7.2522   -1.4030    0.0000 H       1  UNL1        0.0000
     37 H           8.0991   -1.1760    0.0000 H       1  UNL1        0.0000
     38 H           3.5611   -0.5560    0.0000 H       1  UNL1        0.0000
     39 H           3.7881   -1.4030    0.0000 H       1  UNL1        0.0000
     40 H           4.6350   -1.1760    0.0000 H       1  UNL1        0.0000
     41 H           5.6350    0.5560    0.0000 H       1  UNL1        0.0000
     42 H           5.4081    1.4030    0.0000 H       1  UNL1        0.0000
     43 H           4.5611    1.1760    0.0000 H       1  UNL1        0.0000
     44 H           9.7573   -1.1760    0.0000 H       1  UNL1        0.0000
     45 H          10.6042   -1.4030    0.0000 H       1  UNL1        0.0000
     46 H          10.8312   -0.5560    0.0000 H       1  UNL1        0.0000
     47 H           9.8312    1.1760    0.0000 H       1  UNL1        0.0000
     48 H           8.9842    1.4030    0.0000 H       1  UNL1        0.0000
     49 H           8.7573    0.5560    0.0000 H       1  UNL1        0.0000
     50 H           1.6900    0.0369    0.0000 H       1  UNL1        0.0000
     51 H           1.4631   -0.8100    0.0000 H       1  UNL1        0.0000
     52 H           2.3100   -1.0369    0.0000 H       1  UNL1        0.0000
     53 H           2.9030    1.1760    0.0000 H       1  UNL1        0.0000
     54 H           2.0560    1.4030    0.0000 H       1  UNL1        0.0000
     55 H           1.8291    0.5560    0.0000 H       1  UNL1        0.0000
     56 H           2.8291   -1.1760    0.0000 H       1  UNL1        0.0000
     57 H           3.6760   -1.4030    0.0000 H       1  UNL1        0.0000
     58 H           3.9030   -0.5560    0.0000 H       1  UNL1        0.0000
     59 H          12.0823   -1.0369    0.0000 H       1  UNL1        0.0000
     60 H          12.9292   -0.8100    0.0000 H       1  UNL1        0.0000
     61 H          12.7023    0.0369    0.0000 H       1  UNL1        0.0000
     62 H          12.5632    0.5560    0.0000 H       1  UNL1        0.0000
     63 H          12.3363    1.4030    0.0000 H       1  UNL1        0.0000
     64 H          11.4893    1.1760    0.0000 H       1  UNL1        0.0000
     65 H          10.4893   -0.5560    0.0000 H       1  UNL1        0.0000
     66 H          10.7163   -1.4030    0.0000 H       1  UNL1        0.0000
     67 H          11.5632   -1.1760    0.0000 H       1  UNL1        0.0000
@<TRIPOS>BOND
     1     1     7    1
     2     1     8    1
     3     1    12    1
     4     1    13    1
     5     2     7    1
     6     2     9    1
     7     2    14    1
     8     2    15    1
     9     3     8    1
    10     3    10    1
    11     3    16    1
    12     3    17    1
    13     4     9    1
    14     4    11    1
    15     4    18    1
    16     4    19    1
    17     5    10    1
    18     5    20    1
    19     5    21    1
    20     5    22    1
    21     6    11    1
    22     6    23    1
    23     6    24    1
    24     6    25    1
    25    12    26    1
    26    12    27    1
    27    12    28    1
    28    13    29    1
    29    13    30    1
    30    13    31    1
    31    14    32    1
    32    14    33    1
    33    14    34    1
    34    15    35    1
    35    15    36    1
    36    15    37    1
    37    16    38    1
    38    16    39    1
    39    16    40    1
    40    17    41    1
    41    17    42    1
    42    17    43    1
    43    18    44    1
    44    18    45    1
    45    18    46    1
    46    19    47    1
    47    19    48    1
    48    19    49    1
    49    20    50    1
    50    20    51    1
    51    20    52    1
    52    21    53    1
    53    21    54    1
    54    21    55    1
    55    22    56    1
    56    22    57    1
    57    22    58    1
    58    23    59    1
    59    23    60    1
    60    23    61    1
    61    24    62    1
    62    24    63    1
    63    24    64    1
    64    25    65    1
    65    25    66    1
    66    25    67    1
