@<TRIPOS>MOLECULE
IMPHY017468
 39 38 0 0 0
SMALL
GASTEIGER

@<TRIPOS>ATOM
      1 O           7.1962   -1.0950    0.0000 O.3     1  UNL1       -0.3909
      2 O           4.5981    0.4050    0.0000 O.3     1  UNL1       -0.4641
      3 O           3.7320   -1.0950    0.0000 O.2     1  UNL1       -0.2506
      4 C           8.0622    0.4050    0.0000 C.3     1  UNL1       -0.0114
      5 C           7.1962   -0.0950    0.0000 C.3     1  UNL1        0.0657
      6 C           6.3301    0.4050    0.0000 C.3     1  UNL1        0.0170
      7 C           8.9282    0.9050    0.0000 C.3     1  UNL1       -0.0577
      8 C           8.5622   -0.4610    0.0000 C.3     1  UNL1       -0.0577
      9 C           7.5622    1.2710    0.0000 C.3     1  UNL1       -0.0577
     10 C           5.4641   -0.0950    0.0000 C.3     1  UNL1        0.0974
     11 C           6.3301    1.4050    0.0000 C.3     1  UNL1       -0.0569
     12 C           3.7320   -0.0950    0.0000 C.2     1  UNL1        0.3097
     13 C           2.8660    0.4050    0.0000 C.3     1  UNL1        0.0508
     14 C           2.0000   -0.0950    0.0000 C.3     1  UNL1       -0.0525
     15 C           2.8660    1.4050    0.0000 C.3     1  UNL1       -0.0525
     16 H           6.6592   -0.4050    0.0000 H       1  UNL1        0.0602
     17 H           6.8671    0.7150    0.0000 H       1  UNL1        0.0356
     18 H           9.2382    0.3681    0.0000 H       1  UNL1        0.0236
     19 H           9.4651    1.2150    0.0000 H       1  UNL1        0.0236
     20 H           8.6182    1.4419    0.0000 H       1  UNL1        0.0236
     21 H           8.0252   -0.7710    0.0000 H       1  UNL1        0.0236
     22 H           8.8722   -0.9980    0.0000 H       1  UNL1        0.0236
     23 H           9.0991   -0.1510    0.0000 H       1  UNL1        0.0236
     24 H           8.0991    1.5810    0.0000 H       1  UNL1        0.0236
     25 H           7.2522    1.8080    0.0000 H       1  UNL1        0.0236
     26 H           7.0252    0.9610    0.0000 H       1  UNL1        0.0236
     27 H           5.0656   -0.5699    0.0000 H       1  UNL1        0.0701
     28 H           5.8626   -0.5699    0.0000 H       1  UNL1        0.0701
     29 H           6.9501    1.4050    0.0000 H       1  UNL1        0.0234
     30 H           6.3301    2.0250    0.0000 H       1  UNL1        0.0234
     31 H           5.7101    1.4050    0.0000 H       1  UNL1        0.0234
     32 H           6.6592   -1.4050    0.0000 H       1  UNL1        0.2098
     33 H           2.8660   -0.2150    0.0000 H       1  UNL1        0.0408
     34 H           1.6900    0.4419    0.0000 H       1  UNL1        0.0237
     35 H           1.4631   -0.4050    0.0000 H       1  UNL1        0.0237
     36 H           2.3100   -0.6319    0.0000 H       1  UNL1        0.0237
     37 H           3.4860    1.4050    0.0000 H       1  UNL1        0.0237
     38 H           2.8660    2.0250    0.0000 H       1  UNL1        0.0237
     39 H           2.2460    1.4050    0.0000 H       1  UNL1        0.0237
@<TRIPOS>BOND
     1     1     5    1
     2     1    32    1
     3     2    10    1
     4     2    12    1
     5     3    12    2
     6     4     5    1
     7     4     7    1
     8     4     8    1
     9     4     9    1
    10     5     6    1
    11     5    16    1
    12     6    10    1
    13     6    11    1
    14     6    17    1
    15     7    18    1
    16     7    19    1
    17     7    20    1
    18     8    21    1
    19     8    22    1
    20     8    23    1
    21     9    24    1
    22     9    25    1
    23     9    26    1
    24    10    27    1
    25    10    28    1
    26    11    29    1
    27    11    30    1
    28    11    31    1
    29    12    13    1
    30    13    14    1
    31    13    15    1
    32    13    33    1
    33    14    34    1
    34    14    35    1
    35    14    36    1
    36    15    37    1
    37    15    38    1
    38    15    39    1
