@<TRIPOS>MOLECULE
IMPHY006843
 21 21 0 0 0
SMALL
GASTEIGER

@<TRIPOS>ATOM
      1 S           3.7601   -0.7694    0.0000 S.O2    1  UNL1       -0.0282
      2 O           3.1723   -1.5784    0.0000 O.2     1  UNL1       -0.1741
      3 O           4.3479   -1.5784    0.0000 O.2     1  UNL1       -0.1741
      4 C           2.9511   -0.1816    0.0000 C.3     1  UNL1        0.0744
      5 C           4.2601    0.7694    0.0000 C.3     1  UNL1       -0.0228
      6 C           3.2601    0.7694    0.0000 C.3     1  UNL1       -0.0269
      7 C           4.5691   -0.1816    0.0000 C.3     1  UNL1        0.0687
      8 C           2.0000   -0.4907    0.0000 C.3     1  UNL1       -0.0428
      9 C           4.8479    1.5784    0.0000 C.3     1  UNL1       -0.0609
     10 H           2.8181   -1.0212    0.0000 H       1  UNL1        0.0533
     11 H           5.0996    0.6365    0.0000 H       1  UNL1        0.0314
     12 H           3.3249    1.3860    0.0000 H       1  UNL1        0.0287
     13 H           2.6536    0.8983    0.0000 H       1  UNL1        0.0287
     14 H           4.8791   -0.7186    0.0000 H       1  UNL1        0.0502
     15 H           5.1355    0.0705    0.0000 H       1  UNL1        0.0502
     16 H           1.8084    0.0990    0.0000 H       1  UNL1        0.0248
     17 H           1.4103   -0.6822    0.0000 H       1  UNL1        0.0248
     18 H           2.1916   -1.0803    0.0000 H       1  UNL1        0.0248
     19 H           5.3494    1.2140    0.0000 H       1  UNL1        0.0233
     20 H           5.2123    2.0800    0.0000 H       1  UNL1        0.0233
     21 H           4.3463    1.9429    0.0000 H       1  UNL1        0.0233
@<TRIPOS>BOND
     1     1     2    2
     2     1     3    2
     3     1     4    1
     4     1     7    1
     5     4     6    1
     6     4     8    1
     7     4    10    1
     8     5     6    1
     9     5     7    1
    10     5     9    1
    11     5    11    1
    12     6    12    1
    13     6    13    1
    14     7    14    1
    15     7    15    1
    16     8    16    1
    17     8    17    1
    18     8    18    1
    19     9    19    1
    20     9    20    1
    21     9    21    1
