@<TRIPOS>MOLECULE
IMPHY004067
 34 34 0 0 0
SMALL
GASTEIGER

@<TRIPOS>ATOM
      1 O           3.7320    1.2500    0.0000 O.3     1  UNL1       -0.4612
      2 O           5.4641    1.2500    0.0000 O.2     1  UNL1       -0.2512
      3 C           2.8660   -0.2500    0.0000 C.3     1  UNL1       -0.0066
      4 C           4.5981   -1.2500    0.0000 C.3     1  UNL1       -0.0171
      5 C           3.7320    0.2500    0.0000 C.3     1  UNL1        0.1061
      6 C           4.5981   -0.2500    0.0000 C.3     1  UNL1       -0.0089
      7 C           2.8660   -1.2500    0.0000 C.3     1  UNL1       -0.0466
      8 C           3.7320   -1.7500    0.0000 C.3     1  UNL1       -0.0461
      9 C           2.0000    0.2500    0.0000 C.3     1  UNL1       -0.0591
     10 C           5.4641   -1.7500    0.0000 C.2     1  UNL1       -0.0765
     11 C           5.4641   -2.7500    0.0000 C.3     1  UNL1       -0.0438
     12 C           6.3301   -1.2500    0.0000 C.2     1  UNL1       -0.0994
     13 C           4.5981    1.7500    0.0000 C.2     1  UNL1        0.3042
     14 C           4.5981    2.7500    0.0000 C.3     1  UNL1        0.0332
     15 H           2.8660    0.3700    0.0000 H       1  UNL1        0.0334
     16 H           4.5981   -1.8700    0.0000 H       1  UNL1        0.0347
     17 H           4.2690    0.5600    0.0000 H       1  UNL1        0.0736
     18 H           5.2087   -0.3577    0.0000 H       1  UNL1        0.0307
     19 H           4.8101    0.3326    0.0000 H       1  UNL1        0.0307
     20 H           2.2554   -1.1423    0.0000 H       1  UNL1        0.0269
     21 H           2.6540   -1.8326    0.0000 H       1  UNL1        0.0269
     22 H           3.3335   -2.2250    0.0000 H       1  UNL1        0.0271
     23 H           4.1306   -2.2250    0.0000 H       1  UNL1        0.0271
     24 H           2.3100    0.7869    0.0000 H       1  UNL1        0.0234
     25 H           1.4631    0.5600    0.0000 H       1  UNL1        0.0234
     26 H           1.6900   -0.2869    0.0000 H       1  UNL1        0.0234
     27 H           4.8441   -2.7500    0.0000 H       1  UNL1        0.0274
     28 H           5.4641   -3.3700    0.0000 H       1  UNL1        0.0274
     29 H           6.0841   -2.7500    0.0000 H       1  UNL1        0.0274
     30 H           6.8671   -1.5600    0.0000 H       1  UNL1        0.0534
     31 H           6.3301   -0.6300    0.0000 H       1  UNL1        0.0534
     32 H           5.2181    2.7500    0.0000 H       1  UNL1        0.0342
     33 H           4.5981    3.3700    0.0000 H       1  UNL1        0.0342
     34 H           3.9781    2.7500    0.0000 H       1  UNL1        0.0342
@<TRIPOS>BOND
     1     1     5    1
     2     1    13    1
     3     2    13    2
     4     3     5    1
     5     3     7    1
     6     3     9    1
     7     3    15    1
     8     4     6    1
     9     4     8    1
    10     4    10    1
    11     4    16    1
    12     5     6    1
    13     5    17    1
    14     6    18    1
    15     6    19    1
    16     7     8    1
    17     7    20    1
    18     7    21    1
    19     8    22    1
    20     8    23    1
    21     9    24    1
    22     9    25    1
    23     9    26    1
    24    10    11    1
    25    10    12    2
    26    11    27    1
    27    11    28    1
    28    11    29    1
    29    12    30    1
    30    12    31    1
    31    13    14    1
    32    14    32    1
    33    14    33    1
    34    14    34    1
