@<TRIPOS>MOLECULE
IMPHY012845
 77 78 0 0 0
SMALL
GASTEIGER

@<TRIPOS>ATOM
      1 O           8.5991   -2.3450    0.0000 O.3     1  UNL1       -0.3405
      2 O           5.1350   -1.3450    0.0000 O.3     1  UNL1       -0.3405
      3 O           6.8671   -1.3450    0.0000 O.3     1  UNL1       -0.3460
      4 O          10.3312   -2.3450    0.0000 O.3     1  UNL1       -0.3378
      5 O           6.8671   -4.3450    0.0000 O.3     1  UNL1       -0.3865
      6 O           8.5991   -5.3450    0.0000 O.3     1  UNL1       -0.3864
      7 O          10.3312   -4.3450    0.0000 O.3     1  UNL1       -0.3841
      8 O           6.8671    0.6550    0.0000 O.3     1  UNL1       -0.3841
      9 O           5.1350    1.6550    0.0000 O.3     1  UNL1       -0.3864
     10 O           3.4030    0.6550    0.0000 O.3     1  UNL1       -0.3865
     11 O           2.5369   -0.8450    0.0000 O.3     1  UNL1       -0.3924
     12 O           8.5991   -1.3450    0.0000 O.3     1  UNL1       -0.3763
     13 O          12.9292    3.1550    0.0000 O.3     1  UNL1       -0.3950
     14 C           7.7331   -2.8450    0.0000 C.3     1  UNL1        0.1134
     15 C           7.7331   -3.8450    0.0000 C.3     1  UNL1        0.1119
     16 C           8.5991   -4.3450    0.0000 C.3     1  UNL1        0.1141
     17 C           9.4651   -3.8450    0.0000 C.3     1  UNL1        0.1341
     18 C           6.0010    0.1550    0.0000 C.3     1  UNL1        0.1341
     19 C           6.0010   -0.8450    0.0000 C.3     1  UNL1        0.1880
     20 C           5.1350    0.6550    0.0000 C.3     1  UNL1        0.1141
     21 C           9.4651   -2.8450    0.0000 C.3     1  UNL1        0.1887
     22 C           4.2690    0.1550    0.0000 C.3     1  UNL1        0.1119
     23 C           4.2690   -0.8450    0.0000 C.3     1  UNL1        0.1130
     24 C           6.8671   -2.3450    0.0000 C.3     1  UNL1        0.0796
     25 C           3.4030   -1.3450    0.0000 C.3     1  UNL1        0.0730
     26 C          10.3312   -1.3450    0.0000 C.3     1  UNL1        0.1169
     27 C           9.4651   -0.8450    0.0000 C.3     1  UNL1        0.1460
     28 C          11.1972   -0.8450    0.0000 C.2     1  UNL1       -0.0560
     29 C          11.1972    0.1550    0.0000 C.2     1  UNL1       -0.0853
     30 C           9.4651    0.1550    0.0000 C.1     1  UNL1       -0.0542
     31 C          12.0632    0.6550    0.0000 C.3     1  UNL1       -0.0326
     32 C          12.0632    1.6550    0.0000 C.3     1  UNL1       -0.0263
     33 C          12.9292    2.1550    0.0000 C.3     1  UNL1        0.0445
     34 C           9.4651    1.1550    0.0000 C.1     1  UNL1       -0.0118
     35 C           9.4651    2.1550    0.0000 C.1     1  UNL1       -0.0101
     36 C           9.4651    3.1550    0.0000 C.1     1  UNL1       -0.0606
     37 C           9.4651    4.1550    0.0000 C.2     1  UNL1       -0.0148
     38 C           8.5991    4.6550    0.0000 C.2     1  UNL1       -0.0789
     39 C           8.5991    5.6550    0.0000 C.3     1  UNL1       -0.0459
     40 H           7.7331   -2.2250    0.0000 H       1  UNL1        0.0647
     41 H           7.7331   -4.4650    0.0000 H       1  UNL1        0.0647
     42 H           9.1360   -4.6550    0.0000 H       1  UNL1        0.0648
     43 H           9.4651   -4.4650    0.0000 H       1  UNL1        0.0671
     44 H           6.0010    0.7750    0.0000 H       1  UNL1        0.0671
     45 H           6.5380   -0.5350    0.0000 H       1  UNL1        0.0937
     46 H           4.5981    0.9650    0.0000 H       1  UNL1        0.0648
     47 H          10.0021   -3.1550    0.0000 H       1  UNL1        0.0938
     48 H           3.7320   -0.1550    0.0000 H       1  UNL1        0.0647
     49 H           4.2690   -1.4650    0.0000 H       1  UNL1        0.0647
     50 H           6.2565   -2.2373    0.0000 H       1  UNL1        0.0587
     51 H           6.6550   -2.9276    0.0000 H       1  UNL1        0.0587
     52 H           3.0044   -1.8200    0.0000 H       1  UNL1        0.0584
     53 H           3.8015   -1.8200    0.0000 H       1  UNL1        0.0584
     54 H           6.3301   -4.0350    0.0000 H       1  UNL1        0.2100
     55 H           8.0622   -5.6550    0.0000 H       1  UNL1        0.2100
     56 H          10.3312   -4.9650    0.0000 H       1  UNL1        0.2101
     57 H           9.7942   -1.6550    0.0000 H       1  UNL1        0.0677
     58 H           6.8671    1.2750    0.0000 H       1  UNL1        0.2101
     59 H           4.5981    1.9650    0.0000 H       1  UNL1        0.2100
     60 H           3.4030    1.2750    0.0000 H       1  UNL1        0.2100
     61 H           8.9282   -0.5350    0.0000 H       1  UNL1        0.0761
     62 H          11.7341   -1.1550    0.0000 H       1  UNL1        0.0596
     63 H           2.0000   -1.1550    0.0000 H       1  UNL1        0.2095
     64 H          10.6603    0.4650    0.0000 H       1  UNL1        0.0570
     65 H          12.2753    0.0724    0.0000 H       1  UNL1        0.0308
     66 H          12.6738    0.7627    0.0000 H       1  UNL1        0.0308
     67 H           8.0622   -1.0350    0.0000 H       1  UNL1        0.2112
     68 H          11.8512    2.2376    0.0000 H       1  UNL1        0.0290
     69 H          11.4526    1.5473    0.0000 H       1  UNL1        0.0290
     70 H          13.1413    1.5724    0.0000 H       1  UNL1        0.0557
     71 H          13.5398    2.2627    0.0000 H       1  UNL1        0.0557
     72 H          13.4662    3.4650    0.0000 H       1  UNL1        0.2094
     73 H          10.0021    4.4650    0.0000 H       1  UNL1        0.0709
     74 H           8.0622    4.3450    0.0000 H       1  UNL1        0.0575
     75 H           9.2191    5.6550    0.0000 H       1  UNL1        0.0272
     76 H           8.5991    6.2750    0.0000 H       1  UNL1        0.0272
     77 H           7.9791    5.6550    0.0000 H       1  UNL1        0.0272
@<TRIPOS>BOND
     1     1    14    1
     2     1    21    1
     3     2    19    1
     4     2    23    1
     5     3    19    1
     6     3    24    1
     7     4    21    1
     8     4    26    1
     9     5    15    1
    10     5    54    1
    11     6    16    1
    12     6    55    1
    13     7    17    1
    14     7    56    1
    15     8    18    1
    16     8    58    1
    17     9    20    1
    18     9    59    1
    19    10    22    1
    20    10    60    1
    21    11    25    1
    22    11    63    1
    23    12    27    1
    24    12    67    1
    25    13    33    1
    26    13    72    1
    27    14    15    1
    28    14    24    1
    29    14    40    1
    30    15    16    1
    31    15    41    1
    32    16    17    1
    33    16    42    1
    34    17    21    1
    35    17    43    1
    36    18    19    1
    37    18    20    1
    38    18    44    1
    39    19    45    1
    40    20    22    1
    41    20    46    1
    42    21    47    1
    43    22    23    1
    44    22    48    1
    45    23    25    1
    46    23    49    1
    47    24    50    1
    48    24    51    1
    49    25    52    1
    50    25    53    1
    51    26    27    1
    52    26    28    1
    53    26    57    1
    54    27    30    1
    55    27    61    1
    56    28    29    2
    57    28    62    1
    58    29    31    1
    59    29    64    1
    60    30    34    3
    61    31    32    1
    62    31    65    1
    63    31    66    1
    64    32    33    1
    65    32    68    1
    66    32    69    1
    67    33    70    1
    68    33    71    1
    69    34    35    1
    70    35    36    3
    71    36    37    1
    72    37    38    2
    73    37    73    1
    74    38    39    1
    75    38    74    1
    76    39    75    1
    77    39    76    1
    78    39    77    1
