@<TRIPOS>MOLECULE
IMPHY000266
 106 108 0 0 0
SMALL
GASTEIGER

@<TRIPOS>ATOM
      1 O          10.3305    4.0780    0.0000 O.3     1  UNL1       -0.3683
      2 O          12.6633    5.4598    0.0000 O.3     1  UNL1       -0.3683
      3 O           7.6849    4.4848    0.0000 O.3     1  UNL1       -0.3892
      4 O          14.4429    6.5531    0.0000 O.3     1  UNL1       -0.3892
      5 O           4.7208   -6.0541    0.0000 O.3     1  UNL1       -0.4587
      6 O           2.4608   -4.7940    0.0000 O.3     1  UNL1       -0.3873
      7 O           5.9809   -4.7940    0.0000 O.2     1  UNL1       -0.2504
      8 C          10.9997    4.8212    0.0000 C.3     1  UNL1        0.0853
      9 C          11.9942    4.7167    0.0000 C.3     1  UNL1        0.0853
     10 C          10.4997    5.6872    0.0000 C.3     1  UNL1       -0.0217
     11 C          12.4942    3.8506    0.0000 C.3     1  UNL1       -0.0217
     12 C           9.4170    4.4848    0.0000 C.3     1  UNL1        0.0850
     13 C          13.5768    5.0531    0.0000 C.3     1  UNL1        0.0850
     14 C           9.5215    5.4793    0.0000 C.3     1  UNL1       -0.0217
     15 C          13.4723    4.0586    0.0000 C.3     1  UNL1       -0.0217
     16 C           8.5510    3.9848    0.0000 C.3     1  UNL1        0.0813
     17 C          14.4429    5.5531    0.0000 C.3     1  UNL1        0.0813
     18 C           8.5510    2.9848    0.0000 C.3     1  UNL1       -0.0244
     19 C          15.3089    5.0531    0.0000 C.3     1  UNL1       -0.0244
     20 C           7.6849    2.4848    0.0000 C.3     1  UNL1       -0.0506
     21 C          16.1749    5.5531    0.0000 C.3     1  UNL1       -0.0506
     22 C           7.6849    1.4848    0.0000 C.3     1  UNL1       -0.0530
     23 C          17.0410    5.0531    0.0000 C.3     1  UNL1       -0.0530
     24 C           6.8189    0.9848    0.0000 C.3     1  UNL1       -0.0531
     25 C          17.9070    5.5531    0.0000 C.3     1  UNL1       -0.0531
     26 C           6.8189   -0.0152    0.0000 C.3     1  UNL1       -0.0531
     27 C           4.2208   -4.5152    0.0000 C.3     1  UNL1        0.0857
     28 C           5.9529   -0.5152    0.0000 C.3     1  UNL1       -0.0531
     29 C           3.4118   -5.1030    0.0000 C.3     1  UNL1        0.1046
     30 C           4.2208   -3.5152    0.0000 C.3     1  UNL1       -0.0376
     31 C          18.7730    5.0531    0.0000 C.3     1  UNL1       -0.0531
     32 C           5.0868   -3.0152    0.0000 C.3     1  UNL1       -0.0522
     33 C           5.9529   -1.5152    0.0000 C.3     1  UNL1       -0.0531
     34 C           5.0868   -2.0152    0.0000 C.3     1  UNL1       -0.0530
     35 C           3.7208   -6.0541    0.0000 C.3     1  UNL1        0.1268
     36 C           5.0298   -5.1030    0.0000 C.2     1  UNL1        0.3132
     37 C          19.6390    5.5531    0.0000 C.3     1  UNL1       -0.0531
     38 C           3.1330   -6.8631    0.0000 C.3     1  UNL1       -0.0252
     39 C          20.5051    5.0531    0.0000 C.3     1  UNL1       -0.0531
     40 C          21.3711    5.5531    0.0000 C.3     1  UNL1       -0.0533
     41 C          22.2371    5.0531    0.0000 C.3     1  UNL1       -0.0559
     42 C          23.1031    5.5531    0.0000 C.3     1  UNL1       -0.0653
     43 H          11.3043    4.0277    0.0000 H       1  UNL1        0.0622
     44 H          11.6896    5.5102    0.0000 H       1  UNL1        0.0622
     45 H          11.0661    5.9394    0.0000 H       1  UNL1        0.0292
     46 H          10.3081    6.2769    0.0000 H       1  UNL1        0.0292
     47 H          11.9278    3.5985    0.0000 H       1  UNL1        0.0292
     48 H          12.6858    3.2610    0.0000 H       1  UNL1        0.0292
     49 H           9.4615    3.6360    0.0000 H       1  UNL1        0.0622
     50 H          13.5324    5.9019    0.0000 H       1  UNL1        0.0622
     51 H           9.4567    6.0959    0.0000 H       1  UNL1        0.0292
     52 H           8.9015    5.4793    0.0000 H       1  UNL1        0.0292
     53 H          13.5371    3.4420    0.0000 H       1  UNL1        0.0292
     54 H          14.0923    4.0586    0.0000 H       1  UNL1        0.0292
     55 H           8.0140    3.6748    0.0000 H       1  UNL1        0.0619
     56 H          14.9798    5.8631    0.0000 H       1  UNL1        0.0619
     57 H           8.7630    2.4022    0.0000 H       1  UNL1        0.0291
     58 H           9.1615    3.0924    0.0000 H       1  UNL1        0.0291
     59 H          14.9104    4.5781    0.0000 H       1  UNL1        0.0291
     60 H          15.7074    4.5781    0.0000 H       1  UNL1        0.0291
     61 H           7.4729    3.0674    0.0000 H       1  UNL1        0.0266
     62 H           7.0743    2.3771    0.0000 H       1  UNL1        0.0266
     63 H          16.5735    6.0280    0.0000 H       1  UNL1        0.0266
     64 H          15.7764    6.0280    0.0000 H       1  UNL1        0.0266
     65 H           7.6849    5.1048    0.0000 H       1  UNL1        0.2099
     66 H          14.9798    6.8631    0.0000 H       1  UNL1        0.2099
     67 H           7.8970    0.9022    0.0000 H       1  UNL1        0.0265
     68 H           8.2955    1.5924    0.0000 H       1  UNL1        0.0265
     69 H          16.6424    4.5781    0.0000 H       1  UNL1        0.0265
     70 H          17.4395    4.5781    0.0000 H       1  UNL1        0.0265
     71 H           6.6068    1.5674    0.0000 H       1  UNL1        0.0265
     72 H           6.2083    0.8771    0.0000 H       1  UNL1        0.0265
     73 H          18.3055    6.0280    0.0000 H       1  UNL1        0.0265
     74 H          17.5084    6.0280    0.0000 H       1  UNL1        0.0265
     75 H           7.0310   -0.5978    0.0000 H       1  UNL1        0.0265
     76 H           7.4295    0.0924    0.0000 H       1  UNL1        0.0265
     77 H           3.6684   -4.2337    0.0000 H       1  UNL1        0.0440
     78 H           3.3148   -4.4906    0.0000 H       1  UNL1        0.0638
     79 H           5.7408    0.0674    0.0000 H       1  UNL1        0.0265
     80 H           5.3423   -0.6229    0.0000 H       1  UNL1        0.0265
     81 H           4.0088   -2.9326    0.0000 H       1  UNL1        0.0274
     82 H           3.6102   -3.6229    0.0000 H       1  UNL1        0.0274
     83 H          18.3745    4.5781    0.0000 H       1  UNL1        0.0265
     84 H          19.1715    4.5781    0.0000 H       1  UNL1        0.0265
     85 H           5.2989   -3.5978    0.0000 H       1  UNL1        0.0265
     86 H           5.6974   -2.9076    0.0000 H       1  UNL1        0.0265
     87 H           6.1649   -2.0978    0.0000 H       1  UNL1        0.0265
     88 H           6.5635   -1.4076    0.0000 H       1  UNL1        0.0265
     89 H           4.8748   -1.4326    0.0000 H       1  UNL1        0.0265
     90 H           4.4763   -2.1229    0.0000 H       1  UNL1        0.0265
     91 H           4.0023   -6.6065    0.0000 H       1  UNL1        0.0757
     92 H          20.0376    6.0280    0.0000 H       1  UNL1        0.0265
     93 H          19.2405    6.0280    0.0000 H       1  UNL1        0.0265
     94 H           2.6314   -6.4986    0.0000 H       1  UNL1        0.0266
     95 H           2.7686   -7.3647    0.0000 H       1  UNL1        0.0266
     96 H           3.6346   -7.2275    0.0000 H       1  UNL1        0.0266
     97 H          20.1065    4.5781    0.0000 H       1  UNL1        0.0265
     98 H          20.9036    4.5781    0.0000 H       1  UNL1        0.0265
     99 H           2.0000   -5.2088    0.0000 H       1  UNL1        0.2100
    100 H          21.7696    6.0280    0.0000 H       1  UNL1        0.0265
    101 H          20.9725    6.0280    0.0000 H       1  UNL1        0.0265
    102 H          21.8386    4.5781    0.0000 H       1  UNL1        0.0263
    103 H          22.6356    4.5781    0.0000 H       1  UNL1        0.0263
    104 H          23.4131    5.0161    0.0000 H       1  UNL1        0.0230
    105 H          23.6401    5.8631    0.0000 H       1  UNL1        0.0230
    106 H          22.7931    6.0900    0.0000 H       1  UNL1        0.0230
@<TRIPOS>BOND
     1     1     8    1
     2     1    12    1
     3     2     9    1
     4     2    13    1
     5    16     3    1
     6     3    65    1
     7    17     4    1
     8     4    66    1
     9     5    35    1
    10     5    36    1
    11    29     6    1
    12     6    99    1
    13     7    36    2
    14     8     9    1
    15     8    10    1
    16     8    43    1
    17     9    11    1
    18     9    44    1
    19    10    14    1
    20    10    45    1
    21    10    46    1
    22    11    15    1
    23    11    47    1
    24    11    48    1
    25    12    14    1
    26    12    16    1
    27    12    49    1
    28    13    15    1
    29    13    17    1
    30    13    50    1
    31    14    51    1
    32    14    52    1
    33    15    53    1
    34    15    54    1
    35    16    18    1
    36    16    55    1
    37    17    19    1
    38    17    56    1
    39    18    20    1
    40    18    57    1
    41    18    58    1
    42    19    21    1
    43    19    59    1
    44    19    60    1
    45    20    22    1
    46    20    61    1
    47    20    62    1
    48    21    23    1
    49    21    63    1
    50    21    64    1
    51    22    24    1
    52    22    67    1
    53    22    68    1
    54    23    25    1
    55    23    69    1
    56    23    70    1
    57    24    26    1
    58    24    71    1
    59    24    72    1
    60    25    31    1
    61    25    73    1
    62    25    74    1
    63    26    28    1
    64    26    75    1
    65    26    76    1
    66    27    29    1
    67    27    30    1
    68    27    36    1
    69    27    77    1
    70    28    33    1
    71    28    79    1
    72    28    80    1
    73    29    35    1
    74    29    78    1
    75    30    32    1
    76    30    81    1
    77    30    82    1
    78    31    37    1
    79    31    83    1
    80    31    84    1
    81    32    34    1
    82    32    85    1
    83    32    86    1
    84    33    34    1
    85    33    87    1
    86    33    88    1
    87    34    89    1
    88    34    90    1
    89    35    38    1
    90    35    91    1
    91    37    39    1
    92    37    92    1
    93    37    93    1
    94    38    94    1
    95    38    95    1
    96    38    96    1
    97    39    40    1
    98    39    97    1
    99    39    98    1
   100    40    41    1
   101    40   100    1
   102    40   101    1
   103    41    42    1
   104    41   102    1
   105    41   103    1
   106    42   104    1
   107    42   105    1
   108    42   106    1
