@<TRIPOS>MOLECULE
IMPHY014325
 33 35 0 0 0
SMALL
GASTEIGER

@<TRIPOS>ATOM
      1 O           6.4144    1.7744    0.0000 O.3     1  UNL1       -0.4906
      2 O           8.1962   -1.2844    0.0000 O.3     1  UNL1       -0.4913
      3 O           4.6660    1.7398    0.0000 O.2     1  UNL1       -0.2865
      4 O           4.6660   -2.2602    0.0000 O.2     1  UNL1       -0.2866
      5 O           8.1962    0.7639    0.0000 O.3     1  UNL1       -0.5009
      6 C           5.5321    0.2398    0.0000 C.ar    1  UNL1        0.0785
      7 C           5.5321   -0.7602    0.0000 C.ar    1  UNL1        0.0403
      8 C           3.8000    0.2398    0.0000 C.ar    1  UNL1        0.0332
      9 C           3.8000   -0.7602    0.0000 C.ar    1  UNL1        0.0331
     10 C           4.6660    0.7398    0.0000 C.2     1  UNL1        0.1981
     11 C           4.6660   -1.2602    0.0000 C.2     1  UNL1        0.1947
     12 C           6.4260    0.7744    0.0000 C.ar    1  UNL1        0.1765
     13 C           6.4260   -1.2949    0.0000 C.ar    1  UNL1       -0.0046
     14 C           7.3321    0.2606    0.0000 C.ar    1  UNL1        0.2018
     15 C           7.3321   -0.7810    0.0000 C.ar    1  UNL1        0.1657
     16 C           2.9061    0.7744    0.0000 C.ar    1  UNL1       -0.0502
     17 C           2.9061   -1.2949    0.0000 C.ar    1  UNL1       -0.0502
     18 C           2.0000    0.2606    0.0000 C.ar    1  UNL1       -0.0610
     19 C           2.0000   -0.7810    0.0000 C.ar    1  UNL1       -0.0610
     20 C           7.2746    2.2844    0.0000 C.3     1  UNL1        0.0790
     21 C           8.1923   -2.2844    0.0000 C.3     1  UNL1        0.0790
     22 H           6.4188   -1.9148    0.0000 H       1  UNL1        0.0663
     23 H           2.9132    1.3944    0.0000 H       1  UNL1        0.0625
     24 H           2.9132   -1.9148    0.0000 H       1  UNL1        0.0625
     25 H           1.4643    0.5727    0.0000 H       1  UNL1        0.0618
     26 H           1.4643   -1.0931    0.0000 H       1  UNL1        0.0618
     27 H           8.7343    0.4560    0.0000 H       1  UNL1        0.2924
     28 H           7.5908    1.7510    0.0000 H       1  UNL1        0.0660
     29 H           7.8079    2.6006    0.0000 H       1  UNL1        0.0660
     30 H           6.9584    2.8177    0.0000 H       1  UNL1        0.0660
     31 H           7.5723   -2.2820    0.0000 H       1  UNL1        0.0660
     32 H           8.1899   -2.9044    0.0000 H       1  UNL1        0.0660
     33 H           8.8123   -2.2868    0.0000 H       1  UNL1        0.0660
@<TRIPOS>BOND
     1     1    12    1
     2     1    20    1
     3     2    15    1
     4     2    21    1
     5     3    10    2
     6     4    11    2
     7     5    14    1
     8     5    27    1
     9     6     7   ar
    10     6    10    1
    11     6    12   ar
    12     7    11    1
    13     7    13   ar
    14     8     9   ar
    15     8    10    1
    16     8    16   ar
    17     9    11    1
    18     9    17   ar
    19    12    14   ar
    20    13    15   ar
    21    13    22    1
    22    14    15   ar
    23    16    18   ar
    24    16    23    1
    25    17    19   ar
    26    17    24    1
    27    18    19   ar
    28    18    25    1
    29    19    26    1
    30    20    28    1
    31    20    29    1
    32    20    30    1
    33    21    31    1
    34    21    32    1
    35    21    33    1
