@<TRIPOS>MOLECULE
IMPHY005197
 46 48 0 0 0
SMALL
GASTEIGER

@<TRIPOS>ATOM
      1 O           8.1424   -1.0501    0.0000 O.3     1  UNL1       -0.4796
      2 O           7.7852    2.2542    0.0000 O.3     1  UNL1       -0.3943
      3 O           6.3301   -2.2454    0.0000 O.3     1  UNL1       -0.4914
      4 O          11.7260   -1.9774    0.0000 O.3     1  UNL1       -0.4914
      5 O          12.7260   -0.2454    0.0000 O.3     1  UNL1       -0.5033
      6 O           2.0000    0.2546    0.0000 O.2     1  UNL1       -0.2963
      7 C           8.1424    0.5593    0.0000 C.3     1  UNL1        0.0520
      8 C           8.7260   -0.2454    0.0000 C.3     1  UNL1        0.1344
      9 C           7.1962    0.2546    0.0000 C.ar    1  UNL1        0.0076
     10 C           7.1962   -0.7454    0.0000 C.ar    1  UNL1        0.1665
     11 C           8.4530    1.5098    0.0000 C.3     1  UNL1        0.0548
     12 C           9.7260   -0.2454    0.0000 C.ar    1  UNL1       -0.0030
     13 C           6.3301    0.7546    0.0000 C.ar    1  UNL1       -0.0472
     14 C           6.3301   -1.2454    0.0000 C.ar    1  UNL1        0.1624
     15 C           5.4641    0.2546    0.0000 C.ar    1  UNL1       -0.0210
     16 C          10.2260   -1.1114    0.0000 C.ar    1  UNL1       -0.0096
     17 C          10.2260    0.6206    0.0000 C.ar    1  UNL1       -0.0514
     18 C           5.4641   -0.7454    0.0000 C.ar    1  UNL1       -0.0091
     19 C          11.2260   -1.1114    0.0000 C.ar    1  UNL1        0.1616
     20 C          11.2260    0.6206    0.0000 C.ar    1  UNL1       -0.0161
     21 C          11.7260   -0.2454    0.0000 C.ar    1  UNL1        0.1585
     22 C           4.5981    0.7546    0.0000 C.2     1  UNL1       -0.0514
     23 C           5.4641   -2.7454    0.0000 C.3     1  UNL1        0.0790
     24 C           3.7320    0.2546    0.0000 C.2     1  UNL1       -0.0219
     25 C          11.2260   -2.8435    0.0000 C.3     1  UNL1        0.0790
     26 C           2.8660    0.7546    0.0000 C.2     1  UNL1        0.1431
     27 H           7.7049    0.9987    0.0000 H       1  UNL1        0.0412
     28 H           9.0077   -0.7977    0.0000 H       1  UNL1        0.0791
     29 H           9.0000    1.2178    0.0000 H       1  UNL1        0.0564
     30 H           8.8356    1.9978    0.0000 H       1  UNL1        0.0564
     31 H           6.3301    1.3746    0.0000 H       1  UNL1        0.0627
     32 H           9.9160   -1.6484    0.0000 H       1  UNL1        0.0659
     33 H           9.9160    1.1576    0.0000 H       1  UNL1        0.0623
     34 H           4.9272   -1.0554    0.0000 H       1  UNL1        0.0661
     35 H           7.9778    2.8435    0.0000 H       1  UNL1        0.2094
     36 H          11.5360    1.1576    0.0000 H       1  UNL1        0.0655
     37 H           4.5981    1.3746    0.0000 H       1  UNL1        0.0624
     38 H           5.1541   -2.2085    0.0000 H       1  UNL1        0.0660
     39 H           4.9272   -3.0554    0.0000 H       1  UNL1        0.0660
     40 H           5.7741   -3.2823    0.0000 H       1  UNL1        0.0660
     41 H           3.7320   -0.3654    0.0000 H       1  UNL1        0.0650
     42 H          13.0360    0.2915    0.0000 H       1  UNL1        0.2923
     43 H          10.6890   -2.5335    0.0000 H       1  UNL1        0.0660
     44 H          10.9160   -3.3804    0.0000 H       1  UNL1        0.0660
     45 H          11.7629   -3.1535    0.0000 H       1  UNL1        0.0660
     46 H           2.8660    1.3746    0.0000 H       1  UNL1        0.1075
@<TRIPOS>BOND
     1     1     8    1
     2     1    10    1
     3     2    11    1
     4     2    35    1
     5     3    14    1
     6     3    23    1
     7     4    19    1
     8     4    25    1
     9     5    21    1
    10     5    42    1
    11     6    26    2
    12     7     8    1
    13     7     9    1
    14     7    11    1
    15     7    27    1
    16     8    12    1
    17     8    28    1
    18     9    10   ar
    19     9    13   ar
    20    10    14   ar
    21    11    29    1
    22    11    30    1
    23    12    16   ar
    24    12    17   ar
    25    13    15   ar
    26    13    31    1
    27    14    18   ar
    28    15    18   ar
    29    15    22    1
    30    16    19   ar
    31    16    32    1
    32    17    20   ar
    33    17    33    1
    34    18    34    1
    35    19    21   ar
    36    20    21   ar
    37    20    36    1
    38    22    24    2
    39    22    37    1
    40    23    38    1
    41    23    39    1
    42    23    40    1
    43    24    26    1
    44    24    41    1
    45    25    43    1
    46    25    44    1
    47    25    45    1
    48    26    46    1
