@<TRIPOS>MOLECULE
IMPHY012524
 74 78 0 0 0
SMALL
GASTEIGER

@<TRIPOS>ATOM
      1 O          11.2079   -1.3968    0.0000 O.3     1  UNL1       -0.3313
      2 O           5.1350   -0.8812    0.0000 O.3     1  UNL1       -0.3313
      3 O          10.3592    0.1131    0.0000 O.3     1  UNL1       -0.4515
      4 O           6.8671   -0.8812    0.0000 O.3     1  UNL1       -0.4598
      5 O           8.5926   -2.8666    0.0000 O.3     1  UNL1       -0.3864
      6 O          10.3130   -3.8866    0.0000 O.3     1  UNL1       -0.3865
      7 O           5.1350   -3.8812    0.0000 O.3     1  UNL1       -0.3864
      8 O           3.4030   -2.8812    0.0000 O.3     1  UNL1       -0.3865
      9 O           8.6158   -0.8668    0.0000 O.3     1  UNL1       -0.3829
     10 O           6.8671   -2.8812    0.0000 O.3     1  UNL1       -0.3829
     11 O          12.9282   -2.4168    0.0000 O.3     1  UNL1       -0.3924
     12 O           2.5369   -1.3812    0.0000 O.3     1  UNL1       -0.3924
     13 O           8.6504    2.1330    0.0000 O.2     1  UNL1       -0.1997
     14 O           5.1208    2.1980    0.0000 O.3     1  UNL1       -0.5063
     15 O          12.9745    1.5830    0.0000 O.3     1  UNL1       -0.5033
     16 O          12.9976    3.5828    0.0000 O.3     1  UNL1       -0.5033
     17 C           9.4644   -2.3767    0.0000 C.3     1  UNL1        0.1152
     18 C          10.3246   -2.8867    0.0000 C.3     1  UNL1        0.1120
     19 C           5.1350   -2.8812    0.0000 C.3     1  UNL1        0.1152
     20 C           4.2690   -2.3812    0.0000 C.3     1  UNL1        0.1120
     21 C           9.4759   -1.3768    0.0000 C.3     1  UNL1        0.1454
     22 C           6.0010   -2.3812    0.0000 C.3     1  UNL1        0.1454
     23 C          11.1963   -2.3967    0.0000 C.3     1  UNL1        0.1140
     24 C           4.2690   -1.3812    0.0000 C.3     1  UNL1        0.1140
     25 C          10.3477   -0.8868    0.0000 C.3     1  UNL1        0.2312
     26 C           6.0010   -1.3812    0.0000 C.3     1  UNL1        0.2308
     27 C          12.0565   -2.9067    0.0000 C.3     1  UNL1        0.0731
     28 C           3.4030   -0.8812    0.0000 C.3     1  UNL1        0.0731
     29 C           6.8671    0.1188    0.0000 C.ar    1  UNL1        0.1437
     30 C           9.4991    0.6231    0.0000 C.ar    1  UNL1        0.2288
     31 C           7.7671    0.6431    0.0000 C.ar    1  UNL1        0.1245
     32 C           8.6273    0.1331    0.0000 C.ar    1  UNL1        0.0093
     33 C           9.5106    1.6230    0.0000 C.ar    1  UNL1        0.4046
     34 C           7.7787    1.6431    0.0000 C.ar    1  UNL1        0.3708
     35 C           5.9670    0.6431    0.0000 C.ar    1  UNL1        0.0229
     36 C           6.8910    2.1880    0.0000 C.ar    1  UNL1        0.0847
     37 C           5.9790    1.6847    0.0000 C.ar    1  UNL1        0.1293
     38 C          10.3824    2.1130    0.0000 C.ar    1  UNL1        0.0865
     39 C          11.2426    1.6030    0.0000 C.ar    1  UNL1       -0.0003
     40 C          10.3939    3.1129    0.0000 C.ar    1  UNL1       -0.0418
     41 C          12.1143    2.0930    0.0000 C.ar    1  UNL1        0.1591
     42 C          11.2657    3.6029    0.0000 C.ar    1  UNL1       -0.0157
     43 C          12.1259    3.0929    0.0000 C.ar    1  UNL1        0.1583
     44 H          10.1211   -2.0076    0.0000 H       1  UNL1        0.0648
     45 H          10.9726   -3.2709    0.0000 H       1  UNL1        0.0647
     46 H           5.7874   -3.2579    0.0000 H       1  UNL1        0.0648
     47 H           3.6166   -2.0045    0.0000 H       1  UNL1        0.0647
     48 H           8.8192   -1.7459    0.0000 H       1  UNL1        0.0683
     49 H           6.0011   -3.1345    0.0000 H       1  UNL1        0.0683
     50 H          10.5483   -2.0125    0.0000 H       1  UNL1        0.0647
     51 H           3.6166   -1.7579    0.0000 H       1  UNL1        0.0647
     52 H          11.0044   -0.5177    0.0000 H       1  UNL1        0.1084
     53 H           6.0011   -0.6279    0.0000 H       1  UNL1        0.1084
     54 H          12.4256   -3.5634    0.0000 H       1  UNL1        0.0584
     55 H          11.6724   -3.5547    0.0000 H       1  UNL1        0.0584
     56 H           3.0264   -0.2288    0.0000 H       1  UNL1        0.0584
     57 H           3.7797   -0.2288    0.0000 H       1  UNL1        0.0584
     58 H           7.9359   -3.2356    0.0000 H       1  UNL1        0.2100
     59 H          10.3043   -4.6399    0.0000 H       1  UNL1        0.2100
     60 H           5.1350   -4.6345    0.0000 H       1  UNL1        0.2100
     61 H           2.7506   -3.2579    0.0000 H       1  UNL1        0.2100
     62 H           7.9678   -0.4826    0.0000 H       1  UNL1        0.2102
     63 H           7.5195   -3.2578    0.0000 H       1  UNL1        0.2102
     64 H           8.6186   -0.6202    0.0000 H       1  UNL1        0.0667
     65 H          13.5849   -2.0477    0.0000 H       1  UNL1        0.2095
     66 H           1.8845   -1.7578    0.0000 H       1  UNL1        0.2095
     67 H           5.3117    0.2715    0.0000 H       1  UNL1        0.0691
     68 H           6.9085    2.9411    0.0000 H       1  UNL1        0.0749
     69 H          11.2339    0.8497    0.0000 H       1  UNL1        0.0664
     70 H           9.7459    3.4970    0.0000 H       1  UNL1        0.0628
     71 H           4.4743    2.5847    0.0000 H       1  UNL1        0.2921
     72 H          11.2744    4.3562    0.0000 H       1  UNL1        0.0655
     73 H          13.6225    1.1988    0.0000 H       1  UNL1        0.2923
     74 H          13.6543    3.9519    0.0000 H       1  UNL1        0.2923
@<TRIPOS>UNITY_ATOM_ATTR
13 1
charge 1
@<TRIPOS>BOND
     1     1    23    1
     2     1    25    1
     3     2    24    1
     4     2    26    1
     5     3    25    1
     6     3    30    1
     7     4    26    1
     8     4    29    1
     9     5    17    1
    10     5    58    1
    11     6    18    1
    12     6    59    1
    13     7    19    1
    14     7    60    1
    15     8    20    1
    16     8    61    1
    17     9    21    1
    18     9    62    1
    19    10    22    1
    20    10    63    1
    21    11    27    1
    22    11    65    1
    23    12    28    1
    24    12    66    1
    25    13    33   ar
    26    13    34   ar
    27    14    37    1
    28    14    71    1
    29    15    41    1
    30    15    73    1
    31    16    43    1
    32    16    74    1
    33    17    18    1
    34    17    21    1
    35    17    44    1
    36    18    23    1
    37    18    45    1
    38    19    20    1
    39    19    22    1
    40    19    46    1
    41    20    24    1
    42    20    47    1
    43    21    25    1
    44    21    48    1
    45    22    26    1
    46    22    49    1
    47    23    27    1
    48    23    50    1
    49    24    28    1
    50    24    51    1
    51    25    52    1
    52    26    53    1
    53    27    54    1
    54    27    55    1
    55    28    56    1
    56    28    57    1
    57    29    31   ar
    58    29    35   ar
    59    30    32   ar
    60    30    33   ar
    61    31    32   ar
    62    31    34   ar
    63    32    64    1
    64    33    38    1
    65    34    36   ar
    66    35    37   ar
    67    35    67    1
    68    36    37   ar
    69    36    68    1
    70    38    39   ar
    71    38    40   ar
    72    39    41   ar
    73    39    69    1
    74    40    42   ar
    75    40    70    1
    76    41    43   ar
    77    42    43   ar
    78    42    72    1
