@<TRIPOS>MOLECULE
IMPHY013581
 53 56 0 0 0
SMALL
GASTEIGER

@<TRIPOS>ATOM
      1 O           4.2690   -1.6796    0.0000 O.3     1  UNL1       -0.3339
      2 O           6.0010   -1.6796    0.0000 O.3     1  UNL1       -0.4569
      3 O           4.2690   -4.6796    0.0000 O.3     1  UNL1       -0.3864
      4 O           2.5369   -3.6796    0.0000 O.3     1  UNL1       -0.3866
      5 O           6.0010   -3.6796    0.0000 O.3     1  UNL1       -0.3829
      6 O           7.7570    1.3829    0.0000 O.2     1  UNL1       -0.4470
      7 O           7.7710   -0.6486    0.0000 O.3     1  UNL1       -0.5009
      8 O           4.2548    1.3996    0.0000 O.3     1  UNL1       -0.5058
      9 O           6.9006    3.8863    0.0000 O.3     1  UNL1       -0.5007
     10 O           5.1647    2.8930    0.0000 O.2     1  UNL1       -0.2830
     11 O          11.2249    2.3696    0.0000 O.3     1  UNL1       -0.5033
     12 O          11.2326    4.3696    0.0000 O.3     1  UNL1       -0.5033
     13 C           4.2690   -3.6796    0.0000 C.3     1  UNL1        0.1151
     14 C           3.4030   -3.1796    0.0000 C.3     1  UNL1        0.1096
     15 C           5.1350   -3.1796    0.0000 C.3     1  UNL1        0.1454
     16 C           3.4030   -2.1796    0.0000 C.3     1  UNL1        0.0883
     17 C           5.1350   -2.1796    0.0000 C.3     1  UNL1        0.2309
     18 C           2.5369   -1.6796    0.0000 C.3     1  UNL1       -0.0360
     19 C           6.0010   -0.6796    0.0000 C.ar    1  UNL1        0.1724
     20 C           6.9011   -0.1553    0.0000 C.ar    1  UNL1        0.2027
     21 C           5.1010   -0.1553    0.0000 C.ar    1  UNL1        0.0263
     22 C           6.8891    0.8863    0.0000 C.ar    1  UNL1        0.1879
     23 C           6.0250    1.3896    0.0000 C.ar    1  UNL1        0.1128
     24 C           5.1130    0.8863    0.0000 C.ar    1  UNL1        0.1350
     25 C           6.0288    2.3896    0.0000 C.ar    1  UNL1        0.2380
     26 C           7.7609    2.3829    0.0000 C.ar    1  UNL1        0.1809
     27 C           6.8968    2.8863    0.0000 C.ar    1  UNL1        0.2082
     28 C           8.6288    2.8796    0.0000 C.ar    1  UNL1        0.0247
     29 C           9.4929    2.3763    0.0000 C.ar    1  UNL1       -0.0057
     30 C           8.6327    3.8796    0.0000 C.ar    1  UNL1       -0.0473
     31 C          10.3608    2.8729    0.0000 C.ar    1  UNL1        0.1589
     32 C           9.5006    4.3762    0.0000 C.ar    1  UNL1       -0.0159
     33 C          10.3647    3.8729    0.0000 C.ar    1  UNL1        0.1583
     34 H           3.7320   -3.9896    0.0000 H       1  UNL1        0.0648
     35 H           3.4030   -3.7996    0.0000 H       1  UNL1        0.0646
     36 H           5.1350   -3.7996    0.0000 H       1  UNL1        0.0683
     37 H           3.4030   -1.5596    0.0000 H       1  UNL1        0.0621
     38 H           5.6720   -2.4896    0.0000 H       1  UNL1        0.1084
     39 H           2.8469   -1.1426    0.0000 H       1  UNL1        0.0255
     40 H           2.0000   -1.3696    0.0000 H       1  UNL1        0.0255
     41 H           2.2269   -2.2165    0.0000 H       1  UNL1        0.0255
     42 H           3.7320   -4.9896    0.0000 H       1  UNL1        0.2100
     43 H           2.0000   -3.3696    0.0000 H       1  UNL1        0.2100
     44 H           6.0010   -4.2996    0.0000 H       1  UNL1        0.2102
     45 H           4.5617   -0.4611    0.0000 H       1  UNL1        0.0692
     46 H           7.7757   -1.2686    0.0000 H       1  UNL1        0.2924
     47 H           3.7132    1.0979    0.0000 H       1  UNL1        0.2922
     48 H           9.4905    1.7563    0.0000 H       1  UNL1        0.0662
     49 H           8.0969    4.1916    0.0000 H       1  UNL1        0.0626
     50 H           6.3649    4.1983    0.0000 H       1  UNL1        0.2924
     51 H           9.5030    4.9962    0.0000 H       1  UNL1        0.0655
     52 H          11.7631    2.6775    0.0000 H       1  UNL1        0.2923
     53 H          11.2350    4.9896    0.0000 H       1  UNL1        0.2923
@<TRIPOS>BOND
     1     1    16    1
     2     1    17    1
     3    17     2    1
     4     2    19    1
     5    13     3    1
     6     3    42    1
     7    14     4    1
     8     4    43    1
     9    15     5    1
    10     5    44    1
    11     6    22   ar
    12     6    26   ar
    13     7    20    1
    14     7    46    1
    15     8    24    1
    16     8    47    1
    17     9    27    1
    18     9    50    1
    19    10    25    2
    20    11    31    1
    21    11    52    1
    22    12    33    1
    23    12    53    1
    24    13    14    1
    25    13    15    1
    26    13    34    1
    27    14    16    1
    28    14    35    1
    29    15    17    1
    30    15    36    1
    31    16    18    1
    32    16    37    1
    33    17    38    1
    34    18    39    1
    35    18    40    1
    36    18    41    1
    37    19    20   ar
    38    19    21   ar
    39    20    22   ar
    40    21    24   ar
    41    21    45    1
    42    22    23   ar
    43    23    24   ar
    44    23    25   ar
    45    25    27   ar
    46    26    27   ar
    47    26    28    1
    48    28    29   ar
    49    28    30   ar
    50    29    31   ar
    51    29    48    1
    52    30    32   ar
    53    30    49    1
    54    31    33   ar
    55    32    33   ar
    56    32    51    1
