@<TRIPOS>MOLECULE
IMPHY001585
 45 47 0 0 0
SMALL
GASTEIGER

@<TRIPOS>ATOM
      1 O           6.0682   -1.7277    0.0000 O.2     1  UNL1       -0.4582
      2 O           8.6663   -1.2277    0.0000 O.3     1  UNL1       -0.4944
      3 O           4.3198   -2.7623    0.0000 O.3     1  UNL1       -0.4885
      4 O           8.6663    2.7723    0.0000 O.3     1  UNL1       -0.4914
      5 O           6.0682    1.2723    0.0000 O.2     1  UNL1       -0.2863
      6 O           4.3198    1.3069    0.0000 O.3     1  UNL1       -0.5058
      7 O          10.3984    1.7723    0.0000 O.3     1  UNL1       -0.4913
      8 O           2.5381   -1.7519    0.0000 O.3     1  UNL1       -0.5031
      9 C           6.9343   -0.2277    0.0000 C.ar    1  UNL1        0.0680
     10 C           5.2022   -0.2277    0.0000 C.ar    1  UNL1        0.1097
     11 C           7.8003    0.2723    0.0000 C.ar    1  UNL1        0.0341
     12 C           5.2022   -1.2277    0.0000 C.ar    1  UNL1        0.1870
     13 C           6.0682    0.2723    0.0000 C.ar    1  UNL1        0.2039
     14 C           8.6663   -0.2277    0.0000 C.ar    1  UNL1        0.1317
     15 C           4.3083    0.3069    0.0000 C.ar    1  UNL1        0.1349
     16 C           4.3083   -1.7624    0.0000 C.ar    1  UNL1        0.2049
     17 C           6.9343   -1.2277    0.0000 C.ar    1  UNL1        0.1041
     18 C           7.8003    1.2723    0.0000 C.ar    1  UNL1       -0.0049
     19 C           8.6663    1.7723    0.0000 C.ar    1  UNL1        0.1623
     20 C           3.4022   -1.2485    0.0000 C.ar    1  UNL1        0.1657
     21 C           9.5323    0.2723    0.0000 C.ar    1  UNL1        0.0260
     22 C           9.5323    1.2723    0.0000 C.ar    1  UNL1        0.1650
     23 C           3.4022   -0.2069    0.0000 C.ar    1  UNL1        0.0259
     24 C           9.5323   -1.7277    0.0000 C.3     1  UNL1        0.0788
     25 C           3.4597   -3.2723    0.0000 C.3     1  UNL1        0.0791
     26 C           9.5323    3.2723    0.0000 C.3     1  UNL1        0.0790
     27 C          11.2644    1.2723    0.0000 C.3     1  UNL1        0.0790
     28 H           7.2634    1.5823    0.0000 H       1  UNL1        0.0663
     29 H           7.4712   -1.5377    0.0000 H       1  UNL1        0.1037
     30 H          10.0693   -0.0377    0.0000 H       1  UNL1        0.0692
     31 H           2.8665    0.1052    0.0000 H       1  UNL1        0.0692
     32 H           3.7865    1.6231    0.0000 H       1  UNL1        0.2922
     33 H           2.0000   -1.4439    0.0000 H       1  UNL1        0.2923
     34 H           9.2224   -2.2646    0.0000 H       1  UNL1        0.0660
     35 H          10.0693   -2.0377    0.0000 H       1  UNL1        0.0660
     36 H           9.8424   -1.1908    0.0000 H       1  UNL1        0.0660
     37 H           3.1435   -2.7390    0.0000 H       1  UNL1        0.0660
     38 H           2.9263   -3.5885    0.0000 H       1  UNL1        0.0660
     39 H           3.7758   -3.8056    0.0000 H       1  UNL1        0.0660
     40 H           9.8424    2.7354    0.0000 H       1  UNL1        0.0660
     41 H          10.0693    3.5823    0.0000 H       1  UNL1        0.0660
     42 H           9.2224    3.8092    0.0000 H       1  UNL1        0.0660
     43 H          10.9544    0.7354    0.0000 H       1  UNL1        0.0660
     44 H          11.8013    0.9623    0.0000 H       1  UNL1        0.0660
     45 H          11.5744    1.8092    0.0000 H       1  UNL1        0.0660
@<TRIPOS>BOND
     1     1    12   ar
     2     1    17   ar
     3     2    14    1
     4     2    24    1
     5     3    16    1
     6     3    25    1
     7     4    19    1
     8     4    26    1
     9     5    13    2
    10     6    15    1
    11     6    32    1
    12     7    22    1
    13     7    27    1
    14     8    20    1
    15     8    33    1
    16     9    11    1
    17     9    13   ar
    18     9    17   ar
    19    10    12   ar
    20    10    13   ar
    21    10    15   ar
    22    11    14   ar
    23    11    18   ar
    24    12    16   ar
    25    14    21   ar
    26    15    23   ar
    27    16    20   ar
    28    17    29    1
    29    18    19   ar
    30    18    28    1
    31    19    22   ar
    32    20    23   ar
    33    21    22   ar
    34    21    30    1
    35    23    31    1
    36    24    34    1
    37    24    35    1
    38    24    36    1
    39    25    37    1
    40    25    38    1
    41    25    39    1
    42    26    40    1
    43    26    41    1
    44    26    42    1
    45    27    43    1
    46    27    44    1
    47    27    45    1
