@<TRIPOS>MOLECULE
IMPHY002628
 35 36 0 0 0
SMALL
GASTEIGER

@<TRIPOS>ATOM
      1 O           3.7320   -2.2500    0.0000 O.2     1  UNL1       -0.2974
      2 C           3.7320   -0.2500    0.0000 C.3     1  UNL1       -0.0067
      3 C           3.7320    0.7500    0.0000 C.3     1  UNL1       -0.0130
      4 C           2.8660   -0.7500    0.0000 C.3     1  UNL1        0.0243
      5 C           4.6260    1.2847    0.0000 C.3     1  UNL1       -0.0423
      6 C           2.0000   -0.2500    0.0000 C.3     1  UNL1       -0.0393
      7 C           2.8660    1.2500    0.0000 C.2     1  UNL1       -0.0729
      8 C           2.0000    0.7500    0.0000 C.3     1  UNL1       -0.0311
      9 C           4.6260   -0.7847    0.0000 C.2     1  UNL1       -0.0807
     10 C           5.5321    0.7708    0.0000 C.3     1  UNL1       -0.0314
     11 C           5.5321   -0.2708    0.0000 C.2     1  UNL1       -0.0762
     12 C           2.8660   -1.7500    0.0000 C.2     1  UNL1        0.1339
     13 C           2.8660    2.2500    0.0000 C.2     1  UNL1       -0.0992
     14 C           6.3961   -0.7742    0.0000 C.3     1  UNL1       -0.0438
     15 C           2.0000   -2.2500    0.0000 C.3     1  UNL1       -0.0058
     16 H           3.7273   -0.8700    0.0000 H       1  UNL1        0.0355
     17 H           3.7273    1.3700    0.0000 H       1  UNL1        0.0351
     18 H           2.3291   -1.0600    0.0000 H       1  UNL1        0.0383
     19 H           5.0196    1.7637    0.0000 H       1  UNL1        0.0274
     20 H           4.2214    1.7544    0.0000 H       1  UNL1        0.0274
     21 H           1.3894   -0.1423    0.0000 H       1  UNL1        0.0275
     22 H           1.7880   -0.8326    0.0000 H       1  UNL1        0.0275
     23 H           1.7880    1.3326    0.0000 H       1  UNL1        0.0310
     24 H           1.3894    0.6423    0.0000 H       1  UNL1        0.0310
     25 H           4.6188   -1.4046    0.0000 H       1  UNL1        0.0575
     26 H           6.1429    0.6647    0.0000 H       1  UNL1        0.0310
     27 H           5.7411    1.3545    0.0000 H       1  UNL1        0.0310
     28 H           3.4030    2.5600    0.0000 H       1  UNL1        0.0534
     29 H           2.3291    2.5600    0.0000 H       1  UNL1        0.0534
     30 H           6.0841   -1.3099    0.0000 H       1  UNL1        0.0274
     31 H           6.9319   -1.0862    0.0000 H       1  UNL1        0.0274
     32 H           6.7082   -0.2384    0.0000 H       1  UNL1        0.0274
     33 H           1.6900   -1.7131    0.0000 H       1  UNL1        0.0306
     34 H           1.4631   -2.5600    0.0000 H       1  UNL1        0.0306
     35 H           2.3100   -2.7869    0.0000 H       1  UNL1        0.0306
@<TRIPOS>BOND
     1     1    12    2
     2     2     3    1
     3     2     4    1
     4     2     9    1
     5     2    16    1
     6     3     5    1
     7     3     7    1
     8     3    17    1
     9     4     6    1
    10     4    12    1
    11     4    18    1
    12     5    10    1
    13     5    19    1
    14     5    20    1
    15     6     8    1
    16     6    21    1
    17     6    22    1
    18     7     8    1
    19     7    13    2
    20     8    23    1
    21     8    24    1
    22     9    11    2
    23     9    25    1
    24    10    11    1
    25    10    26    1
    26    10    27    1
    27    11    14    1
    28    12    15    1
    29    13    28    1
    30    13    29    1
    31    14    30    1
    32    14    31    1
    33    14    32    1
    34    15    33    1
    35    15    34    1
    36    15    35    1
