@<TRIPOS>MOLECULE
IMPHY002845
 41 40 0 0 0
SMALL
GASTEIGER

@<TRIPOS>ATOM
      1 O           3.7320   -0.5600    0.0000 O.3     1  UNL1       -0.4606
      2 O           2.8660   -2.0600    0.0000 O.2     1  UNL1       -0.2512
      3 C          14.9904    0.9400    0.0000 C.3     1  UNL1       -0.0530
      4 C          14.1244    1.4400    0.0000 C.3     1  UNL1       -0.0496
      5 C          15.8564    1.4400    0.0000 C.3     1  UNL1       -0.0559
      6 C          13.2583    0.9400    0.0000 C.3     1  UNL1       -0.0347
      7 C          16.7224    0.9400    0.0000 C.3     1  UNL1       -0.0653
      8 C          12.3923    1.4400    0.0000 C.2     1  UNL1       -0.0870
      9 C          11.5263    0.9400    0.0000 C.2     1  UNL1       -0.0762
     10 C          10.6603    1.4400    0.0000 C.3     1  UNL1        0.0282
     11 C           9.7942    0.9400    0.0000 C.1     1  UNL1       -0.0843
     12 C           8.9282    0.4400    0.0000 C.1     1  UNL1       -0.0142
     13 C           4.5981   -1.0600    0.0000 C.3     1  UNL1        0.1115
     14 C           5.4641   -0.5600    0.0000 C.2     1  UNL1       -0.0388
     15 C           6.3301   -1.0600    0.0000 C.2     1  UNL1       -0.0114
     16 C           2.8660   -1.0600    0.0000 C.2     1  UNL1        0.3042
     17 C           8.0622   -0.0600    0.0000 C.1     1  UNL1       -0.0101
     18 C           2.0000   -0.5600    0.0000 C.3     1  UNL1        0.0332
     19 C           7.1962   -0.5600    0.0000 C.1     1  UNL1       -0.0605
     20 H          14.5919    0.4651    0.0000 H       1  UNL1        0.0265
     21 H          15.3889    0.4651    0.0000 H       1  UNL1        0.0265
     22 H          14.5229    1.9150    0.0000 H       1  UNL1        0.0268
     23 H          13.7258    1.9150    0.0000 H       1  UNL1        0.0268
     24 H          16.2549    1.9150    0.0000 H       1  UNL1        0.0263
     25 H          15.4579    1.9150    0.0000 H       1  UNL1        0.0263
     26 H          12.8598    0.4651    0.0000 H       1  UNL1        0.0307
     27 H          13.6569    0.4651    0.0000 H       1  UNL1        0.0307
     28 H          16.4124    0.4031    0.0000 H       1  UNL1        0.0230
     29 H          17.2594    0.6300    0.0000 H       1  UNL1        0.0230
     30 H          17.0324    1.4769    0.0000 H       1  UNL1        0.0230
     31 H          12.3923    2.0600    0.0000 H       1  UNL1        0.0569
     32 H          11.5263    0.3200    0.0000 H       1  UNL1        0.0578
     33 H          11.0588    1.9150    0.0000 H       1  UNL1        0.0441
     34 H          10.2617    1.9150    0.0000 H       1  UNL1        0.0441
     35 H           4.1996   -1.5350    0.0000 H       1  UNL1        0.0743
     36 H           4.9966   -1.5350    0.0000 H       1  UNL1        0.0743
     37 H           5.4641    0.0600    0.0000 H       1  UNL1        0.0612
     38 H           6.3301   -1.6800    0.0000 H       1  UNL1        0.0710
     39 H           2.3100   -0.0231    0.0000 H       1  UNL1        0.0342
     40 H           1.4631   -0.2500    0.0000 H       1  UNL1        0.0342
     41 H           1.6900   -1.0969    0.0000 H       1  UNL1        0.0342
@<TRIPOS>BOND
     1     1    13    1
     2     1    16    1
     3     2    16    2
     4     3     4    1
     5     3     5    1
     6     3    20    1
     7     3    21    1
     8     4     6    1
     9     4    22    1
    10     4    23    1
    11     5     7    1
    12     5    24    1
    13     5    25    1
    14     6     8    1
    15     6    26    1
    16     6    27    1
    17     7    28    1
    18     7    29    1
    19     7    30    1
    20     8     9    2
    21     8    31    1
    22     9    10    1
    23     9    32    1
    24    10    11    1
    25    10    33    1
    26    10    34    1
    27    11    12    3
    28    12    17    1
    29    13    14    1
    30    13    35    1
    31    13    36    1
    32    14    15    2
    33    14    37    1
    34    15    19    1
    35    15    38    1
    36    16    18    1
    37    17    19    3
    38    18    39    1
    39    18    40    1
    40    18    41    1
