@<TRIPOS>MOLECULE
IMPHY000119
 46 48 0 0 0
SMALL
GASTEIGER

@<TRIPOS>ATOM
      1 O           5.8301    0.7679    0.0000 O.3     1  UNL1       -0.3753
      2 O           4.5981   -0.0981    0.0000 O.3     1  UNL1       -0.3843
      3 O           4.5981   -2.0981    0.0000 O.3     1  UNL1       -0.4509
      4 O           6.3301    1.6340    0.0000 O.3     1  UNL1       -0.4577
      5 O           8.0622   -0.0981    0.0000 O.2     1  UNL1       -0.2894
      6 O           5.4641   -3.5981    0.0000 O.2     1  UNL1       -0.2449
      7 O           7.8301    2.5000    0.0000 O.2     1  UNL1       -0.2450
      8 C           6.3301   -0.0981    0.0000 C.3     1  UNL1        0.1910
      9 C           5.4641   -0.5981    0.0000 C.3     1  UNL1        0.1347
     10 C           5.4641   -1.5981    0.0000 C.3     1  UNL1        0.1509
     11 C           6.8301    0.7679    0.0000 C.3     1  UNL1        0.1313
     12 C           7.1962   -0.5981    0.0000 C.2     1  UNL1        0.1933
     13 C           6.3301   -2.0981    0.0000 C.2     1  UNL1       -0.0380
     14 C           7.1962   -1.5981    0.0000 C.2     1  UNL1       -0.0165
     15 C           4.5981   -3.0981    0.0000 C.2     1  UNL1        0.3398
     16 C           6.8301    2.5000    0.0000 C.2     1  UNL1        0.3393
     17 C           3.7320   -3.5981    0.0000 C.ar    1  UNL1        0.0590
     18 C           6.3301    3.3660    0.0000 C.ar    1  UNL1        0.0590
     19 C           2.8660   -3.0981    0.0000 C.ar    1  UNL1       -0.0478
     20 C           3.7320   -4.5981    0.0000 C.ar    1  UNL1       -0.0478
     21 C           6.8301    4.2320    0.0000 C.ar    1  UNL1       -0.0478
     22 C           5.3301    3.3660    0.0000 C.ar    1  UNL1       -0.0478
     23 C           2.0000   -3.5981    0.0000 C.ar    1  UNL1       -0.0610
     24 C           2.8660   -5.0981    0.0000 C.ar    1  UNL1       -0.0610
     25 C           2.0000   -4.5981    0.0000 C.ar    1  UNL1       -0.0617
     26 C           6.3301    5.0981    0.0000 C.ar    1  UNL1       -0.0610
     27 C           4.8301    4.2320    0.0000 C.ar    1  UNL1       -0.0610
     28 C           5.3301    5.0981    0.0000 C.ar    1  UNL1       -0.0617
     29 H           5.4641    0.0219    0.0000 H       1  UNL1        0.0668
     30 H           5.4641   -2.2181    0.0000 H       1  UNL1        0.0807
     31 H           7.3051    0.3694    0.0000 H       1  UNL1        0.0732
     32 H           7.3051    1.1665    0.0000 H       1  UNL1        0.0732
     33 H           6.3301   -2.7181    0.0000 H       1  UNL1        0.0610
     34 H           7.7331   -1.9081    0.0000 H       1  UNL1        0.0651
     35 H           5.2101    0.7679    0.0000 H       1  UNL1        0.2110
     36 H           4.0611   -0.4081    0.0000 H       1  UNL1        0.2101
     37 H           2.8660   -2.4781    0.0000 H       1  UNL1        0.0626
     38 H           4.2690   -4.9081    0.0000 H       1  UNL1        0.0626
     39 H           7.4501    4.2320    0.0000 H       1  UNL1        0.0626
     40 H           5.0201    2.8291    0.0000 H       1  UNL1        0.0626
     41 H           1.4631   -3.2881    0.0000 H       1  UNL1        0.0618
     42 H           2.8660   -5.7181    0.0000 H       1  UNL1        0.0618
     43 H           1.4631   -4.9081    0.0000 H       1  UNL1        0.0618
     44 H           6.6401    5.6350    0.0000 H       1  UNL1        0.0618
     45 H           4.2101    4.2320    0.0000 H       1  UNL1        0.0618
     46 H           5.0201    5.6350    0.0000 H       1  UNL1        0.0618
@<TRIPOS>BOND
     1     8     1    1
     2     1    35    1
     3     9     2    1
     4     2    36    1
     5    10     3    1
     6     3    15    1
     7     4    11    1
     8     4    16    1
     9     5    12    2
    10     6    15    2
    11     7    16    2
    12     8     9    1
    13     8    11    1
    14     8    12    1
    15     9    10    1
    16     9    29    1
    17    10    13    1
    18    10    30    1
    19    11    31    1
    20    11    32    1
    21    12    14    1
    22    13    14    2
    23    13    33    1
    24    14    34    1
    25    15    17    1
    26    16    18    1
    27    17    19   ar
    28    17    20   ar
    29    18    21   ar
    30    18    22   ar
    31    19    23   ar
    32    19    37    1
    33    20    24   ar
    34    20    38    1
    35    21    26   ar
    36    21    39    1
    37    22    27   ar
    38    22    40    1
    39    23    25   ar
    40    23    41    1
    41    24    25   ar
    42    24    42    1
    43    25    43    1
    44    26    28   ar
    45    26    44    1
    46    27    28   ar
    47    27    45    1
    48    28    46    1
