@<TRIPOS>MOLECULE
IMPHY011229
 114 121 0 0 0
SMALL
GASTEIGER

@<TRIPOS>ATOM
      1 O           7.7331   -1.9895    0.0000 O.3     1  UNL1       -0.3451
      2 O           6.0010   -1.9895    0.0000 O.3     1  UNL1       -0.3405
      3 O           7.7331   -3.9895    0.0000 O.3     1  UNL1       -0.3841
      4 O           6.0010   -4.9895    0.0000 O.3     1  UNL1       -0.3401
      5 O           4.2690   -3.9895    0.0000 O.3     1  UNL1       -0.3865
      6 O           4.2690   -0.9895    0.0000 O.3     1  UNL1       -0.3924
      7 O           4.2690   -4.9895    0.0000 O.3     1  UNL1       -0.3405
      8 O           6.0010   -6.9895    0.0000 O.3     1  UNL1       -0.3841
      9 O           4.2690   -7.9895    0.0000 O.3     1  UNL1       -0.3864
     10 O           2.5369   -6.9895    0.0000 O.3     1  UNL1       -0.3865
     11 O           2.5369   -3.9895    0.0000 O.3     1  UNL1       -0.3924
     12 N           9.1562    6.2546    0.0000 N.3     1  UNL1       -0.2956
     13 C           7.7624    4.2074    0.0000 C.3     1  UNL1       -0.0244
     14 C           7.9678    5.1800    0.0000 C.3     1  UNL1       -0.0157
     15 C           8.6303    3.7107    0.0000 C.3     1  UNL1       -0.0305
     16 C           8.9561    5.2869    0.0000 C.3     1  UNL1        0.0146
     17 C           8.6342    2.7107    0.0000 C.3     1  UNL1       -0.0306
     18 C           9.3647    4.3806    0.0000 C.3     1  UNL1       -0.0334
     19 C           7.5655    6.0826    0.0000 C.3     1  UNL1       -0.0235
     20 C           7.7701    2.2074    0.0000 C.3     1  UNL1       -0.0285
     21 C           6.8983    3.7041    0.0000 C.3     1  UNL1       -0.0468
     22 C           8.2985    6.7454    0.0000 C.3     1  UNL1        0.0136
     23 C           6.9021    2.7041    0.0000 C.3     1  UNL1       -0.0486
     24 C           7.7580    1.1658    0.0000 C.3     1  UNL1       -0.0078
     25 C           6.8944    4.7040    0.0000 C.3     1  UNL1       -0.0590
     26 C           9.5461    2.2074    0.0000 C.3     1  UNL1       -0.0311
     27 C           8.2786    7.7745    0.0000 C.3     1  UNL1       -0.0368
     28 C          10.0535    6.7589    0.0000 C.3     1  UNL1        0.0020
     29 C           6.5871    6.2893    0.0000 C.3     1  UNL1       -0.0607
     30 C           8.6581    0.6416    0.0000 C.2     1  UNL1       -0.0648
     31 C          10.0575    7.7882    0.0000 C.3     1  UNL1       -0.0310
     32 C           6.8081    0.6416    0.0000 C.3     1  UNL1       -0.0413
     33 C           9.1641    8.2995    0.0000 C.3     1  UNL1       -0.0479
     34 C           9.5581    1.1658    0.0000 C.2     1  UNL1       -0.0839
     35 C           6.8939    1.6692    0.0000 C.3     1  UNL1       -0.0556
     36 C           8.6706   -0.4434    0.0000 C.3     1  UNL1       -0.0047
     37 C           6.7956   -0.4434    0.0000 C.3     1  UNL1       -0.0254
     38 C           7.7331   -0.9895    0.0000 C.3     1  UNL1        0.0655
     39 C          10.9235    8.2882    0.0000 C.3     1  UNL1       -0.0613
     40 C           6.8671   -2.4895    0.0000 C.3     1  UNL1        0.1882
     41 C           6.8671   -3.4895    0.0000 C.3     1  UNL1        0.1345
     42 C           6.0010   -3.9895    0.0000 C.3     1  UNL1        0.1206
     43 C           5.1350   -2.4895    0.0000 C.3     1  UNL1        0.1130
     44 C           5.1350   -3.4895    0.0000 C.3     1  UNL1        0.1123
     45 C           4.2690   -1.9895    0.0000 C.3     1  UNL1        0.0730
     46 C           5.1350   -5.4895    0.0000 C.3     1  UNL1        0.1884
     47 C           5.1350   -6.4895    0.0000 C.3     1  UNL1        0.1341
     48 C           4.2690   -6.9895    0.0000 C.3     1  UNL1        0.1141
     49 C           3.4030   -5.4895    0.0000 C.3     1  UNL1        0.1130
     50 C           3.4030   -6.4895    0.0000 C.3     1  UNL1        0.1119
     51 C           2.5369   -4.9895    0.0000 C.3     1  UNL1        0.0730
     52 H           7.1225    5.0905    0.0000 H       1  UNL1        0.0324
     53 H           9.4086    3.3690    0.0000 H       1  UNL1        0.0309
     54 H           9.8010    5.3801    0.0000 H       1  UNL1        0.0466
     55 H           9.3653    3.1442    0.0000 H       1  UNL1        0.0309
     56 H           9.7321    3.8812    0.0000 H       1  UNL1        0.0283
     57 H           9.9000    4.6935    0.0000 H       1  UNL1        0.0283
     58 H           7.4040    6.6812    0.0000 H       1  UNL1        0.0317
     59 H           8.5045    1.7796    0.0000 H       1  UNL1        0.0312
     60 H           6.6840    4.2858    0.0000 H       1  UNL1        0.0271
     61 H           6.2881    3.5940    0.0000 H       1  UNL1        0.0271
     62 H           7.5183    7.0828    0.0000 H       1  UNL1        0.0465
     63 H           6.2911    2.8094    0.0000 H       1  UNL1        0.0268
     64 H           6.6923    2.1206    0.0000 H       1  UNL1        0.0268
     65 H           7.2023    5.2422    0.0000 H       1  UNL1        0.0235
     66 H           6.3563    5.0120    0.0000 H       1  UNL1        0.0235
     67 H           6.5865    4.1659    0.0000 H       1  UNL1        0.0235
     68 H          10.1581    2.1084    0.0000 H       1  UNL1        0.0310
     69 H           9.7484    2.7935    0.0000 H       1  UNL1        0.0310
     70 H           8.0584    8.3541    0.0000 H       1  UNL1        0.0280
     71 H           7.6700    7.6567    0.0000 H       1  UNL1        0.0280
     72 H          10.2603    6.1744    0.0000 H       1  UNL1        0.0429
     73 H          10.6648    6.8627    0.0000 H       1  UNL1        0.0429
     74 H           6.7152    6.8959    0.0000 H       1  UNL1        0.0233
     75 H           5.9805    6.4174    0.0000 H       1  UNL1        0.0233
     76 H           6.4590    5.6827    0.0000 H       1  UNL1        0.0233
     77 H          10.5938    7.4772    0.0000 H       1  UNL1        0.0310
     78 H           6.6058    1.2276    0.0000 H       1  UNL1        0.0274
     79 H           6.1961    0.5425    0.0000 H       1  UNL1        0.0274
     80 H           9.5595    8.7770    0.0000 H       1  UNL1        0.0269
     81 H           8.7613    8.7708    0.0000 H       1  UNL1        0.0269
     82 H          10.0975    0.8600    0.0000 H       1  UNL1        0.0572
     83 H           7.2060    2.2049    0.0000 H       1  UNL1        0.0238
     84 H           6.3582    1.9812    0.0000 H       1  UNL1        0.0238
     85 H           6.5818    1.1334    0.0000 H       1  UNL1        0.0238
     86 H           8.8864   -1.0246    0.0000 H       1  UNL1        0.0335
     87 H           9.2802   -0.3302    0.0000 H       1  UNL1        0.0335
     88 H           6.1860   -0.3302    0.0000 H       1  UNL1        0.0290
     89 H           6.5798   -1.0246    0.0000 H       1  UNL1        0.0290
     90 H           8.4700   -1.4131    0.0000 H       1  UNL1        0.0600
     91 H          11.2335    7.7513    0.0000 H       1  UNL1        0.0233
     92 H          11.4604    8.5982    0.0000 H       1  UNL1        0.0233
     93 H          10.6135    8.8252    0.0000 H       1  UNL1        0.0233
     94 H           7.4040   -2.7995    0.0000 H       1  UNL1        0.0937
     95 H           6.8671   -4.1095    0.0000 H       1  UNL1        0.0671
     96 H           5.4641   -4.2995    0.0000 H       1  UNL1        0.0651
     97 H           5.1350   -1.8695    0.0000 H       1  UNL1        0.0647
     98 H           4.5981   -3.1795    0.0000 H       1  UNL1        0.0647
     99 H           7.7331   -4.6095    0.0000 H       1  UNL1        0.2101
    100 H           3.6584   -1.8818    0.0000 H       1  UNL1        0.0584
    101 H           4.0569   -2.5721    0.0000 H       1  UNL1        0.0584
    102 H           3.7320   -3.6795    0.0000 H       1  UNL1        0.2100
    103 H           5.1350   -4.8695    0.0000 H       1  UNL1        0.0938
    104 H           5.1350   -7.1095    0.0000 H       1  UNL1        0.0671
    105 H           3.7320   -0.6795    0.0000 H       1  UNL1        0.2095
    106 H           3.7320   -7.2995    0.0000 H       1  UNL1        0.0648
    107 H           3.4030   -4.8695    0.0000 H       1  UNL1        0.0647
    108 H           2.8660   -6.1795    0.0000 H       1  UNL1        0.0647
    109 H           6.0010   -7.6095    0.0000 H       1  UNL1        0.2101
    110 H           1.9264   -4.8818    0.0000 H       1  UNL1        0.0584
    111 H           2.3249   -5.5721    0.0000 H       1  UNL1        0.0584
    112 H           3.7320   -8.2995    0.0000 H       1  UNL1        0.2100
    113 H           2.0000   -6.6795    0.0000 H       1  UNL1        0.2100
    114 H           2.0000   -3.6795    0.0000 H       1  UNL1        0.2095
@<TRIPOS>BOND
     1     1    38    1
     2    40     1    1
     3     2    40    1
     4     2    43    1
     5    41     3    1
     6     3    99    1
     7    42     4    1
     8    46     4    1
     9    44     5    1
    10     5   102    1
    11     6    45    1
    12     6   105    1
    13     7    46    1
    14     7    49    1
    15    47     8    1
    16     8   109    1
    17    48     9    1
    18     9   112    1
    19    50    10    1
    20    10   113    1
    21    11    51    1
    22    11   114    1
    23    12    16    1
    24    12    22    1
    25    12    28    1
    26    13    14    1
    27    13    15    1
    28    13    21    1
    29    13    25    1
    30    14    16    1
    31    14    19    1
    32    14    52    1
    33    15    17    1
    34    15    18    1
    35    15    53    1
    36    16    18    1
    37    16    54    1
    38    17    20    1
    39    17    26    1
    40    17    55    1
    41    18    56    1
    42    18    57    1
    43    19    22    1
    44    19    29    1
    45    19    58    1
    46    20    23    1
    47    20    24    1
    48    20    59    1
    49    21    23    1
    50    21    60    1
    51    21    61    1
    52    22    27    1
    53    22    62    1
    54    23    63    1
    55    23    64    1
    56    24    30    1
    57    24    32    1
    58    24    35    1
    59    25    65    1
    60    25    66    1
    61    25    67    1
    62    26    34    1
    63    26    68    1
    64    26    69    1
    65    27    33    1
    66    27    70    1
    67    27    71    1
    68    28    31    1
    69    28    72    1
    70    28    73    1
    71    29    74    1
    72    29    75    1
    73    29    76    1
    74    30    34    2
    75    30    36    1
    76    31    33    1
    77    31    39    1
    78    31    77    1
    79    32    37    1
    80    32    78    1
    81    32    79    1
    82    33    80    1
    83    33    81    1
    84    34    82    1
    85    35    83    1
    86    35    84    1
    87    35    85    1
    88    36    38    1
    89    36    86    1
    90    36    87    1
    91    37    38    1
    92    37    88    1
    93    37    89    1
    94    38    90    1
    95    39    91    1
    96    39    92    1
    97    39    93    1
    98    40    41    1
    99    40    94    1
   100    41    42    1
   101    41    95    1
   102    42    44    1
   103    42    96    1
   104    43    44    1
   105    43    45    1
   106    43    97    1
   107    44    98    1
   108    45   100    1
   109    45   101    1
   110    46    47    1
   111    46   103    1
   112    47    48    1
   113    47   104    1
   114    48    50    1
   115    48   106    1
   116    49    50    1
   117    49    51    1
   118    49   107    1
   119    50   108    1
   120    51   110    1
   121    51   111    1
