@<TRIPOS>MOLECULE
IMPHY009690
 123 129 0 0 0
SMALL
GASTEIGER

@<TRIPOS>ATOM
      1 O          10.6603   -1.2891    0.0000 O.3     1  UNL1       -0.3449
      2 O          12.4141    7.9903    0.0000 O.3     1  UNL1       -0.4802
      3 O          13.2974    6.5004    0.0000 O.2     1  UNL1       -0.2504
      4 O           8.9282   -1.2891    0.0000 O.3     1  UNL1       -0.3394
      5 O          10.6603   -3.2891    0.0000 O.3     1  UNL1       -0.3841
      6 O           8.9282   -4.2891    0.0000 O.3     1  UNL1       -0.3853
      7 O           7.1962   -3.2891    0.0000 O.3     1  UNL1       -0.4529
      8 O           6.3301   -1.7891    0.0000 O.3     1  UNL1       -0.3923
      9 O           8.0622   -4.7891    0.0000 O.2     1  UNL1       -0.2456
     10 O           2.8660   -5.7891    0.0000 O.3     1  UNL1       -0.4914
     11 O           2.8660   -7.7891    0.0000 O.3     1  UNL1       -0.5033
     12 C          11.5613    3.4111    0.0000 C.3     1  UNL1       -0.0194
     13 C          10.6972    2.9078    0.0000 C.3     1  UNL1       -0.0257
     14 C          10.6852    1.8662    0.0000 C.3     1  UNL1       -0.0250
     15 C          11.5575    4.4111    0.0000 C.3     1  UNL1       -0.0051
     16 C          11.5852    1.3419    0.0000 C.3     1  UNL1       -0.0278
     17 C          12.4733    2.9078    0.0000 C.3     1  UNL1       -0.0463
     18 C          11.5978    0.2570    0.0000 C.3     1  UNL1       -0.0052
     19 C          12.4853    1.8662    0.0000 C.3     1  UNL1       -0.0486
     20 C          10.6895    4.9077    0.0000 C.2     1  UNL1       -0.0629
     21 C           9.8293    3.4044    0.0000 C.3     1  UNL1       -0.0306
     22 C           9.7353    1.3419    0.0000 C.3     1  UNL1       -0.0447
     23 C          10.6694    5.9492    0.0000 C.3     1  UNL1       -0.0031
     24 C          12.4655    4.9214    0.0000 C.3     1  UNL1       -0.0424
     25 C          11.5654    6.4804    0.0000 C.3     1  UNL1        0.0741
     26 C          12.5454    3.5885    0.0000 C.3     1  UNL1       -0.0585
     27 C          10.6603   -0.2891    0.0000 C.3     1  UNL1        0.0672
     28 C          12.4695    5.9630    0.0000 C.3     1  UNL1       -0.0359
     29 C           9.8211    2.3695    0.0000 C.3     1  UNL1       -0.0590
     30 C           9.7227    0.2570    0.0000 C.3     1  UNL1       -0.0255
     31 C           9.8254    4.4044    0.0000 C.2     1  UNL1       -0.0836
     32 C          12.5429    4.2412    0.0000 C.3     1  UNL1       -0.0553
     33 C           9.7155    6.4661    0.0000 C.3     1  UNL1       -0.0403
     34 C          11.5696    7.5654    0.0000 C.3     1  UNL1       -0.0362
     35 C           9.6946    7.5509    0.0000 C.3     1  UNL1       -0.0343
     36 C          12.5978    0.2647    0.0000 C.3     1  UNL1       -0.0572
     37 C          12.1045   -0.6052    0.0000 C.3     1  UNL1       -0.0572
     38 C          10.6279    8.1042    0.0000 C.3     1  UNL1       -0.0468
     39 C          12.4256    6.9904    0.0000 C.2     1  UNL1        0.3115
     40 C           9.1813    8.4091    0.0000 C.3     1  UNL1       -0.0598
     41 C           8.6947    7.5355    0.0000 C.3     1  UNL1       -0.0598
     42 C           9.7942   -1.7891    0.0000 C.3     1  UNL1        0.1883
     43 C           9.7942   -2.7891    0.0000 C.3     1  UNL1        0.1352
     44 C           8.9282   -3.2891    0.0000 C.3     1  UNL1        0.1251
     45 C           8.0622   -1.7891    0.0000 C.3     1  UNL1        0.1240
     46 C           8.0622   -2.7891    0.0000 C.3     1  UNL1        0.1598
     47 C           7.1962   -1.2891    0.0000 C.3     1  UNL1        0.0741
     48 C           7.1962   -4.2891    0.0000 C.2     1  UNL1        0.3324
     49 C           6.3301   -4.7891    0.0000 C.2     1  UNL1        0.0231
     50 C           6.3301   -5.7891    0.0000 C.2     1  UNL1       -0.0477
     51 C           5.4641   -6.2891    0.0000 C.ar    1  UNL1       -0.0211
     52 C           4.5981   -5.7891    0.0000 C.ar    1  UNL1       -0.0092
     53 C           5.4641   -7.2891    0.0000 C.ar    1  UNL1       -0.0509
     54 C           3.7320   -6.2891    0.0000 C.ar    1  UNL1        0.1618
     55 C           4.5981   -7.7891    0.0000 C.ar    1  UNL1       -0.0160
     56 C           3.7320   -7.2891    0.0000 C.ar    1  UNL1        0.1585
     57 C           2.0000   -6.2891    0.0000 C.3     1  UNL1        0.0790
     58 H          11.4317    2.4799    0.0000 H       1  UNL1        0.0315
     59 H          12.1246    1.0360    0.0000 H       1  UNL1        0.0312
     60 H          13.0853    2.8087    0.0000 H       1  UNL1        0.0271
     61 H          12.6756    3.4938    0.0000 H       1  UNL1        0.0271
     62 H          12.7011    1.2850    0.0000 H       1  UNL1        0.0268
     63 H          13.0949    1.9793    0.0000 H       1  UNL1        0.0268
     64 H           9.2183    3.5097    0.0000 H       1  UNL1        0.0310
     65 H           9.6195    2.8210    0.0000 H       1  UNL1        0.0310
     66 H           9.5330    1.9280    0.0000 H       1  UNL1        0.0271
     67 H           9.1232    1.2429    0.0000 H       1  UNL1        0.0271
     68 H           9.9433    5.5073    0.0000 H       1  UNL1        0.0357
     69 H          12.6723    4.3369    0.0000 H       1  UNL1        0.0274
     70 H          13.0768    5.0252    0.0000 H       1  UNL1        0.0274
     71 H          12.6555    2.9784    0.0000 H       1  UNL1        0.0235
     72 H          13.1556    3.6986    0.0000 H       1  UNL1        0.0235
     73 H          12.4354    4.1987    0.0000 H       1  UNL1        0.0235
     74 H          11.1978   -0.5981    0.0000 H       1  UNL1        0.0602
     75 H          13.0800    5.8546    0.0000 H       1  UNL1        0.0276
     76 H          12.6808    6.5459    0.0000 H       1  UNL1        0.0276
     77 H          10.1332    2.9053    0.0000 H       1  UNL1        0.0235
     78 H           9.2854    2.6816    0.0000 H       1  UNL1        0.0235
     79 H           9.5090    1.8338    0.0000 H       1  UNL1        0.0235
     80 H           9.1131    0.3701    0.0000 H       1  UNL1        0.0290
     81 H           9.5069   -0.3243    0.0000 H       1  UNL1        0.0290
     82 H           9.2873    4.7123    0.0000 H       1  UNL1        0.0572
     83 H          12.4376    3.6302    0.0000 H       1  UNL1        0.0238
     84 H          13.1539    4.1359    0.0000 H       1  UNL1        0.0238
     85 H          12.6482    4.8522    0.0000 H       1  UNL1        0.0238
     86 H           9.1027    6.5604    0.0000 H       1  UNL1        0.0276
     87 H           9.5178    5.8785    0.0000 H       1  UNL1        0.0276
     88 H          12.1801    7.4569    0.0000 H       1  UNL1        0.0276
     89 H          11.7809    8.1483    0.0000 H       1  UNL1        0.0276
     90 H          12.6025   -0.3553    0.0000 H       1  UNL1        0.0236
     91 H          13.2177    0.2695    0.0000 H       1  UNL1        0.0236
     92 H          12.5930    0.8847    0.0000 H       1  UNL1        0.0236
     93 H          11.5699   -0.9193    0.0000 H       1  UNL1        0.0236
     94 H          12.4186   -1.1397    0.0000 H       1  UNL1        0.0236
     95 H          12.6390   -0.2910    0.0000 H       1  UNL1        0.0236
     96 H          11.0234    8.5817    0.0000 H       1  UNL1        0.0271
     97 H          10.2251    8.5756    0.0000 H       1  UNL1        0.0271
     98 H           9.7134    8.7274    0.0000 H       1  UNL1        0.0235
     99 H           8.8631    8.9412    0.0000 H       1  UNL1        0.0235
    100 H           8.6492    8.0909    0.0000 H       1  UNL1        0.0235
    101 H           8.6852    8.1554    0.0000 H       1  UNL1        0.0235
    102 H           8.0748    7.5259    0.0000 H       1  UNL1        0.0235
    103 H           8.7043    6.9156    0.0000 H       1  UNL1        0.0235
    104 H           9.7942   -1.1691    0.0000 H       1  UNL1        0.0938
    105 H          12.9474    8.3065    0.0000 H       1  UNL1        0.2951
    106 H           9.7942   -3.4091    0.0000 H       1  UNL1        0.0671
    107 H           8.3913   -3.5991    0.0000 H       1  UNL1        0.0659
    108 H           8.0622   -1.1691    0.0000 H       1  UNL1        0.0658
    109 H           8.0622   -3.4091    0.0000 H       1  UNL1        0.0788
    110 H          11.1972   -2.9791    0.0000 H       1  UNL1        0.2101
    111 H           7.5947   -0.8142    0.0000 H       1  UNL1        0.0584
    112 H           6.7976   -0.8142    0.0000 H       1  UNL1        0.0584
    113 H           9.4651   -4.5991    0.0000 H       1  UNL1        0.2101
    114 H           5.7932   -1.4791    0.0000 H       1  UNL1        0.2095
    115 H           5.7932   -4.4791    0.0000 H       1  UNL1        0.0689
    116 H           6.8671   -6.0991    0.0000 H       1  UNL1        0.0626
    117 H           4.5981   -5.1691    0.0000 H       1  UNL1        0.0661
    118 H           6.0010   -7.5991    0.0000 H       1  UNL1        0.0625
    119 H           4.5981   -8.4091    0.0000 H       1  UNL1        0.0655
    120 H           2.8660   -8.4091    0.0000 H       1  UNL1        0.2923
    121 H           1.6900   -5.7522    0.0000 H       1  UNL1        0.0660
    122 H           1.4631   -6.5991    0.0000 H       1  UNL1        0.0660
    123 H           2.3100   -6.8261    0.0000 H       1  UNL1        0.0660
@<TRIPOS>BOND
     1    27     1    1
     2    42     1    1
     3     2    39    1
     4     2   105    1
     5     3    39    2
     6     4    42    1
     7     4    45    1
     8    43     5    1
     9     5   110    1
    10    44     6    1
    11     6   113    1
    12    46     7    1
    13     7    48    1
    14     8    47    1
    15     8   114    1
    16     9    48    2
    17    10    54    1
    18    10    57    1
    19    11    56    1
    20    11   120    1
    21    12    13    1
    22    12    15    1
    23    12    17    1
    24    12    26    1
    25    13    14    1
    26    13    21    1
    27    13    58    1
    28    14    16    1
    29    14    22    1
    30    14    29    1
    31    15    20    1
    32    15    24    1
    33    15    32    1
    34    16    18    1
    35    16    19    1
    36    16    59    1
    37    17    19    1
    38    17    60    1
    39    17    61    1
    40    18    27    1
    41    18    36    1
    42    18    37    1
    43    19    62    1
    44    19    63    1
    45    20    23    1
    46    20    31    2
    47    21    31    1
    48    21    64    1
    49    21    65    1
    50    22    30    1
    51    22    66    1
    52    22    67    1
    53    23    25    1
    54    23    33    1
    55    23    68    1
    56    24    28    1
    57    24    69    1
    58    24    70    1
    59    25    28    1
    60    25    34    1
    61    25    39    1
    62    26    71    1
    63    26    72    1
    64    26    73    1
    65    27    30    1
    66    27    74    1
    67    28    75    1
    68    28    76    1
    69    29    77    1
    70    29    78    1
    71    29    79    1
    72    30    80    1
    73    30    81    1
    74    31    82    1
    75    32    83    1
    76    32    84    1
    77    32    85    1
    78    33    35    1
    79    33    86    1
    80    33    87    1
    81    34    38    1
    82    34    88    1
    83    34    89    1
    84    35    38    1
    85    35    40    1
    86    35    41    1
    87    36    90    1
    88    36    91    1
    89    36    92    1
    90    37    93    1
    91    37    94    1
    92    37    95    1
    93    38    96    1
    94    38    97    1
    95    40    98    1
    96    40    99    1
    97    40   100    1
    98    41   101    1
    99    41   102    1
   100    41   103    1
   101    42    43    1
   102    42   104    1
   103    43    44    1
   104    43   106    1
   105    44    46    1
   106    44   107    1
   107    45    46    1
   108    45    47    1
   109    45   108    1
   110    46   109    1
   111    47   111    1
   112    47   112    1
   113    48    49    1
   114    49    50    2
   115    49   115    1
   116    50    51    1
   117    50   116    1
   118    51    52   ar
   119    51    53   ar
   120    52    54   ar
   121    52   117    1
   122    53    55   ar
   123    53   118    1
   124    54    56   ar
   125    55    56   ar
   126    55   119    1
   127    57   121    1
   128    57   122    1
   129    57   123    1
