@<TRIPOS>MOLECULE
IMPHY004575
 87 92 0 0 0
SMALL
GASTEIGER

@<TRIPOS>ATOM
      1 O           2.8774   -3.4844    0.0000 O.3     1  UNL1       -0.4914
      2 O           2.8311   -5.4839    0.0000 O.3     1  UNL1       -0.4914
      3 O           4.6901    5.4836    0.0000 O.3     1  UNL1       -0.4914
      4 O           9.8678   -0.5708    0.0000 O.3     1  UNL1       -0.4524
      5 O           4.6901    3.4836    0.0000 O.3     1  UNL1       -0.5033
      6 O          11.6113    0.4091    0.0000 O.3     1  UNL1       -0.5033
      7 N           7.2632   -4.0652    0.0000 N.3     1  UNL1       -0.2978
      8 N           9.0882    3.9628    0.0000 N.3     1  UNL1       -0.2978
      9 C           6.3692   -3.5305    0.0000 C.3     1  UNL1        0.0397
     10 C           8.1821    3.4490    0.0000 C.3     1  UNL1        0.0397
     11 C           5.4632   -4.0444    0.0000 C.ar    1  UNL1       -0.0231
     12 C           7.2882    3.9836    0.0000 C.ar    1  UNL1       -0.0231
     13 C           7.2391   -5.1066    0.0000 C.3     1  UNL1        0.0032
     14 C           9.0882    5.0044    0.0000 C.3     1  UNL1        0.0032
     15 C           6.3214   -5.5993    0.0000 C.3     1  UNL1       -0.0144
     16 C           5.4400   -5.0441    0.0000 C.ar    1  UNL1       -0.0378
     17 C           8.1821    5.5183    0.0000 C.3     1  UNL1       -0.0144
     18 C           7.2882    4.9836    0.0000 C.ar    1  UNL1       -0.0378
     19 C           6.3808   -2.5306    0.0000 C.3     1  UNL1       -0.0079
     20 C           8.1706    2.4490    0.0000 C.3     1  UNL1       -0.0078
     21 C           4.6089   -3.5245    0.0000 C.ar    1  UNL1       -0.0114
     22 C           8.1387   -3.5820    0.0000 C.3     1  UNL1       -0.0122
     23 C           9.9523    3.4595    0.0000 C.3     1  UNL1       -0.0122
     24 C           6.4222    3.4836    0.0000 C.ar    1  UNL1       -0.0116
     25 C           7.2526   -2.0406    0.0000 C.ar    1  UNL1       -0.0453
     26 C           9.0307    1.9391    0.0000 C.ar    1  UNL1       -0.0419
     27 C           4.5627   -5.5240    0.0000 C.ar    1  UNL1       -0.0128
     28 C           6.4222    5.4836    0.0000 C.ar    1  UNL1       -0.0128
     29 C           3.7316   -4.0043    0.0000 C.ar    1  UNL1        0.1618
     30 C           3.7085   -5.0041    0.0000 C.ar    1  UNL1        0.1618
     31 C           5.5561    3.9836    0.0000 C.ar    1  UNL1        0.1588
     32 C           5.5561    4.9836    0.0000 C.ar    1  UNL1        0.1615
     33 C           9.0192    0.9391    0.0000 C.ar    1  UNL1       -0.0124
     34 C           8.1127   -2.5506    0.0000 C.ar    1  UNL1       -0.0550
     35 C           7.2641   -1.0407    0.0000 C.ar    1  UNL1       -0.0550
     36 C           9.9025    2.4290    0.0000 C.ar    1  UNL1       -0.0548
     37 C           9.8794    0.4291    0.0000 C.ar    1  UNL1        0.1698
     38 C           8.9960   -1.0607    0.0000 C.ar    1  UNL1        0.1286
     39 C           8.9845   -2.0607    0.0000 C.ar    1  UNL1       -0.0191
     40 C           8.1359   -0.5508    0.0000 C.ar    1  UNL1       -0.0191
     41 C          10.7627    1.9190    0.0000 C.ar    1  UNL1       -0.0162
     42 C          10.7511    0.9191    0.0000 C.ar    1  UNL1        0.1591
     43 C           2.0000   -3.9643    0.0000 C.3     1  UNL1        0.0790
     44 C           2.8080   -6.4836    0.0000 C.3     1  UNL1        0.0790
     45 C           4.6901    6.4836    0.0000 C.3     1  UNL1        0.0790
     46 H           6.9103   -3.2278    0.0000 H       1  UNL1        0.0515
     47 H           8.7160    3.1338    0.0000 H       1  UNL1        0.0515
     48 H           7.4346   -5.6949    0.0000 H       1  UNL1        0.0430
     49 H           7.8522   -5.0146    0.0000 H       1  UNL1        0.0430
     50 H           9.6990    4.8984    0.0000 H       1  UNL1        0.0430
     51 H           9.2972    5.5881    0.0000 H       1  UNL1        0.0430
     52 H           5.9060   -6.0596    0.0000 H       1  UNL1        0.0326
     53 H           6.7038   -6.0873    0.0000 H       1  UNL1        0.0326
     54 H           8.5758    5.9973    0.0000 H       1  UNL1        0.0326
     55 H           7.7775    5.9881    0.0000 H       1  UNL1        0.0326
     56 H           6.1755   -1.9456    0.0000 H       1  UNL1        0.0332
     57 H           5.7690   -2.6312    0.0000 H       1  UNL1        0.0332
     58 H           7.5613    2.5638    0.0000 H       1  UNL1        0.0332
     59 H           7.9518    1.8689    0.0000 H       1  UNL1        0.0332
     60 H           4.6233   -2.9046    0.0000 H       1  UNL1        0.0659
     61 H           8.4383   -4.1248    0.0000 H       1  UNL1        0.0391
     62 H           8.6815   -3.2824    0.0000 H       1  UNL1        0.0391
     63 H           7.8391   -3.0392    0.0000 H       1  UNL1        0.0391
     64 H           9.6402    2.9237    0.0000 H       1  UNL1        0.0391
     65 H          10.4880    3.1474    0.0000 H       1  UNL1        0.0391
     66 H          10.2643    3.9952    0.0000 H       1  UNL1        0.0391
     67 H           6.4222    2.8636    0.0000 H       1  UNL1        0.0658
     68 H           4.5484   -6.1438    0.0000 H       1  UNL1        0.0658
     69 H           6.4222    6.1036    0.0000 H       1  UNL1        0.0658
     70 H           8.4787    0.6354    0.0000 H       1  UNL1        0.0658
     71 H           8.1056   -3.1706    0.0000 H       1  UNL1        0.0621
     72 H           6.7308   -0.7245    0.0000 H       1  UNL1        0.0621
     73 H           9.9097    3.0490    0.0000 H       1  UNL1        0.0621
     74 H           9.5178   -2.3769    0.0000 H       1  UNL1        0.0654
     75 H           8.1430    0.0692    0.0000 H       1  UNL1        0.0654
     76 H          11.3032    2.2228    0.0000 H       1  UNL1        0.0655
     77 H           4.6901    2.8636    0.0000 H       1  UNL1        0.2923
     78 H           1.7025   -3.4203    0.0000 H       1  UNL1        0.0660
     79 H           1.4560   -4.2618    0.0000 H       1  UNL1        0.0660
     80 H           2.2975   -4.5082    0.0000 H       1  UNL1        0.0660
     81 H           2.1881   -6.4693    0.0000 H       1  UNL1        0.0660
     82 H           2.7936   -7.1035    0.0000 H       1  UNL1        0.0660
     83 H           3.4278   -6.4980    0.0000 H       1  UNL1        0.0660
     84 H           5.3101    6.4836    0.0000 H       1  UNL1        0.0660
     85 H           4.6901    7.1036    0.0000 H       1  UNL1        0.0660
     86 H           4.0701    6.4836    0.0000 H       1  UNL1        0.0660
     87 H          12.1518    0.7129    0.0000 H       1  UNL1        0.2923
@<TRIPOS>BOND
     1     1    29    1
     2     1    43    1
     3     2    30    1
     4     2    44    1
     5     3    32    1
     6     3    45    1
     7     4    37    1
     8     4    38    1
     9     5    31    1
    10     5    77    1
    11     6    42    1
    12     6    87    1
    13     7     9    1
    14     7    13    1
    15     7    22    1
    16     8    10    1
    17     8    14    1
    18     8    23    1
    19     9    11    1
    20     9    19    1
    21     9    46    1
    22    10    12    1
    23    10    20    1
    24    10    47    1
    25    11    16   ar
    26    11    21   ar
    27    12    18   ar
    28    12    24   ar
    29    13    15    1
    30    13    48    1
    31    13    49    1
    32    14    17    1
    33    14    50    1
    34    14    51    1
    35    15    16    1
    36    15    52    1
    37    15    53    1
    38    16    27   ar
    39    17    18    1
    40    17    54    1
    41    17    55    1
    42    18    28   ar
    43    19    25    1
    44    19    56    1
    45    19    57    1
    46    20    26    1
    47    20    58    1
    48    20    59    1
    49    21    29   ar
    50    21    60    1
    51    22    61    1
    52    22    62    1
    53    22    63    1
    54    23    64    1
    55    23    65    1
    56    23    66    1
    57    24    31   ar
    58    24    67    1
    59    25    34   ar
    60    25    35   ar
    61    26    33   ar
    62    26    36   ar
    63    27    30   ar
    64    27    68    1
    65    28    32   ar
    66    28    69    1
    67    29    30   ar
    68    31    32   ar
    69    33    37   ar
    70    33    70    1
    71    34    39   ar
    72    34    71    1
    73    35    40   ar
    74    35    72    1
    75    36    41   ar
    76    36    73    1
    77    37    42   ar
    78    38    39   ar
    79    38    40   ar
    80    39    74    1
    81    40    75    1
    82    41    42   ar
    83    41    76    1
    84    43    78    1
    85    43    79    1
    86    43    80    1
    87    44    81    1
    88    44    82    1
    89    44    83    1
    90    45    84    1
    91    45    85    1
    92    45    86    1
