@<TRIPOS>MOLECULE
IMPHY001253
 40 42 0 0 0
SMALL
GASTEIGER

@<TRIPOS>ATOM
      1 O           5.5851   -0.5485    0.0000 O.3     1  UNL1       -0.4569
      2 O           6.5407   -2.2950    0.0000 O.3     1  UNL1       -0.4803
      3 O           8.2717   -2.2345    0.0000 O.2     1  UNL1       -0.2505
      4 O           4.9927    1.0791    0.0000 O.2     1  UNL1       -0.2450
      5 N           8.0971    2.0486    0.0000 N.3     1  UNL1       -0.2984
      6 C           8.5749    0.1000    0.0000 C.3     1  UNL1        0.0268
      7 C           8.8337    1.0659    0.0000 C.3     1  UNL1        0.0138
      8 C           7.3538   -0.7656    0.0000 C.3     1  UNL1        0.1086
      9 C           9.9738   -0.4088    0.0000 C.3     1  UNL1       -0.0350
     10 C          10.2326    0.5571    0.0000 C.3     1  UNL1       -0.0358
     11 C           6.8004    0.7548    0.0000 C.3     1  UNL1        0.0008
     12 C           6.5248   -0.2065    0.0000 C.3     1  UNL1        0.1191
     13 C           7.5971    2.9146    0.0000 C.3     1  UNL1       -0.0122
     14 C           7.3888   -1.7650    0.0000 C.2     1  UNL1        0.3129
     15 C           4.8191    0.0943    0.0000 C.2     1  UNL1        0.3395
     16 C           3.8794   -0.2477    0.0000 C.ar    1  UNL1        0.0590
     17 C           3.1133    0.3951    0.0000 C.ar    1  UNL1       -0.0478
     18 C           3.7057   -1.2325    0.0000 C.ar    1  UNL1       -0.0478
     19 C           2.1736    0.0531    0.0000 C.ar    1  UNL1       -0.0610
     20 C           2.7660   -1.5745    0.0000 C.ar    1  UNL1       -0.0610
     21 C           2.0000   -0.9317    0.0000 C.ar    1  UNL1       -0.0617
     22 H           8.3549   -0.7210    0.0000 H       1  UNL1        0.0472
     23 H           9.0537    1.8870    0.0000 H       1  UNL1        0.0464
     24 H           6.8116   -1.0662    0.0000 H       1  UNL1        0.0466
     25 H           9.7789   -0.9974    0.0000 H       1  UNL1        0.0281
     26 H          10.5678   -0.5866    0.0000 H       1  UNL1        0.0281
     27 H          10.8266    0.3793    0.0000 H       1  UNL1        0.0281
     28 H          10.4276    1.1457    0.0000 H       1  UNL1        0.0281
     29 H           6.7954    1.3748    0.0000 H       1  UNL1        0.0316
     30 H           6.1861    0.8386    0.0000 H       1  UNL1        0.0316
     31 H           6.4493   -0.8218    0.0000 H       1  UNL1        0.0743
     32 H           8.1340    3.2246    0.0000 H       1  UNL1        0.0391
     33 H           7.2871    3.4515    0.0000 H       1  UNL1        0.0391
     34 H           7.0601    2.6046    0.0000 H       1  UNL1        0.0391
     35 H           6.5623   -2.9146    0.0000 H       1  UNL1        0.2951
     36 H           3.2210    1.0057    0.0000 H       1  UNL1        0.0626
     37 H           4.1807   -1.6310    0.0000 H       1  UNL1        0.0626
     38 H           1.6987    0.4516    0.0000 H       1  UNL1        0.0618
     39 H           2.6584   -2.1851    0.0000 H       1  UNL1        0.0618
     40 H           1.4174   -1.1438    0.0000 H       1  UNL1        0.0618
@<TRIPOS>BOND
     1    12     1    1
     2     1    15    1
     3     2    14    1
     4     2    35    1
     5     3    14    2
     6     4    15    2
     7     5     6    1
     8     5     7    1
     9     5    13    1
    10     6     8    1
    11     6     9    1
    12     6    22    1
    13     7    10    1
    14     7    11    1
    15     7    23    1
    16     8    12    1
    17     8    14    1
    18     8    24    1
    19     9    10    1
    20     9    25    1
    21     9    26    1
    22    10    27    1
    23    10    28    1
    24    11    12    1
    25    11    29    1
    26    11    30    1
    27    12    31    1
    28    13    32    1
    29    13    33    1
    30    13    34    1
    31    15    16    1
    32    16    17   ar
    33    16    18   ar
    34    17    19   ar
    35    17    36    1
    36    18    20   ar
    37    18    37    1
    38    19    21   ar
    39    19    38    1
    40    20    21   ar
    41    20    39    1
    42    21    40    1
