@<TRIPOS>MOLECULE
IMPHY009427
 34 36 0 0 0
SMALL
GASTEIGER

@<TRIPOS>ATOM
      1 O           5.5301    2.0000    0.0000 O.2     1  UNL1       -0.2865
      2 O           7.2785    2.0346    0.0000 O.3     1  UNL1       -0.5028
      3 O           5.5301   -2.0000    0.0000 O.2     1  UNL1       -0.2864
      4 O           9.0602    1.0241    0.0000 O.3     1  UNL1       -0.4913
      5 O           3.7817   -2.0346    0.0000 O.3     1  UNL1       -0.5060
      6 O           7.2785   -2.0346    0.0000 O.3     1  UNL1       -0.5059
      7 C           6.3961    0.5000    0.0000 C.ar    1  UNL1        0.0816
      8 C           4.6641    0.5000    0.0000 C.ar    1  UNL1        0.0370
      9 C           4.6641   -0.5000    0.0000 C.ar    1  UNL1        0.0746
     10 C           6.3961   -0.5000    0.0000 C.ar    1  UNL1        0.0783
     11 C           5.5301    1.0000    0.0000 C.2     1  UNL1        0.1984
     12 C           5.5301   -1.0000    0.0000 C.2     1  UNL1        0.2016
     13 C           7.2901    1.0347    0.0000 C.ar    1  UNL1        0.1704
     14 C           3.7702    1.0347    0.0000 C.ar    1  UNL1       -0.0471
     15 C           3.7702   -1.0347    0.0000 C.ar    1  UNL1        0.1286
     16 C           7.2901   -1.0347    0.0000 C.ar    1  UNL1        0.1321
     17 C           2.8641    0.5208    0.0000 C.ar    1  UNL1       -0.0463
     18 C           8.1962    0.5208    0.0000 C.ar    1  UNL1        0.1655
     19 C           2.8641   -0.5208    0.0000 C.ar    1  UNL1       -0.0165
     20 C           8.1962   -0.5208    0.0000 C.ar    1  UNL1        0.0259
     21 C           2.0000    1.0241    0.0000 C.3     1  UNL1       -0.0396
     22 C           9.9282    0.5275    0.0000 C.3     1  UNL1        0.0790
     23 H           3.7773    1.6546    0.0000 H       1  UNL1        0.0627
     24 H           2.3284   -0.8329    0.0000 H       1  UNL1        0.0657
     25 H           8.7319   -0.8329    0.0000 H       1  UNL1        0.0692
     26 H           2.3121    1.5599    0.0000 H       1  UNL1        0.0278
     27 H           1.4643    1.3362    0.0000 H       1  UNL1        0.0278
     28 H           1.6879    0.4884    0.0000 H       1  UNL1        0.0278
     29 H           7.8118    2.3508    0.0000 H       1  UNL1        0.2923
     30 H           3.2484   -2.3508    0.0000 H       1  UNL1        0.2922
     31 H           7.8118   -2.3508    0.0000 H       1  UNL1        0.2922
     32 H           9.6203   -0.0106    0.0000 H       1  UNL1        0.0660
     33 H          10.4663    0.2196    0.0000 H       1  UNL1        0.0660
     34 H          10.2361    1.0656    0.0000 H       1  UNL1        0.0660
@<TRIPOS>BOND
     1     1    11    2
     2     2    13    1
     3     2    29    1
     4     3    12    2
     5     4    18    1
     6     4    22    1
     7     5    15    1
     8     5    30    1
     9     6    16    1
    10     6    31    1
    11     7    10   ar
    12     7    11    1
    13     7    13   ar
    14     8     9   ar
    15     8    11    1
    16     8    14   ar
    17     9    12    1
    18     9    15   ar
    19    10    12    1
    20    10    16   ar
    21    13    18   ar
    22    14    17   ar
    23    14    23    1
    24    15    19   ar
    25    16    20   ar
    26    17    19   ar
    27    17    21    1
    28    18    20   ar
    29    19    24    1
    30    20    25    1
    31    21    26    1
    32    21    27    1
    33    21    28    1
    34    22    32    1
    35    22    33    1
    36    22    34    1
