@<TRIPOS>MOLECULE
IMPHY004431
 47 46 0 0 0
SMALL
GASTEIGER

@<TRIPOS>ATOM
      1 C           8.0622    0.3100    0.0000 C.3     1  UNL1       -0.0525
      2 C           8.0622   -0.6900    0.0000 C.3     1  UNL1       -0.0496
      3 C           8.9282    0.8100    0.0000 C.3     1  UNL1       -0.0496
      4 C           2.8660   -0.6900    0.0000 C.3     1  UNL1       -0.0496
      5 C           7.1962   -1.1900    0.0000 C.3     1  UNL1       -0.0348
      6 C           2.8660    0.3100    0.0000 C.3     1  UNL1       -0.0530
      7 C           3.7320   -1.1900    0.0000 C.3     1  UNL1       -0.0348
      8 C           8.9282    1.8100    0.0000 C.3     1  UNL1       -0.0350
      9 C           2.0000    0.8100    0.0000 C.3     1  UNL1       -0.0559
     10 C           7.1962   -2.1900    0.0000 C.2     1  UNL1       -0.0876
     11 C           3.7320   -2.1900    0.0000 C.2     1  UNL1       -0.0876
     12 C           5.4641   -2.1900    0.0000 C.3     1  UNL1       -0.0165
     13 C           6.3301   -2.6900    0.0000 C.2     1  UNL1       -0.0842
     14 C           2.0000    1.8100    0.0000 C.3     1  UNL1       -0.0653
     15 C           4.5981   -2.6900    0.0000 C.2     1  UNL1       -0.0842
     16 C           9.7942    2.3100    0.0000 C.2     1  UNL1       -0.0911
     17 C           9.7942    3.3100    0.0000 C.2     1  UNL1       -0.1026
     18 H           7.8501    0.8926    0.0000 H       1  UNL1        0.0265
     19 H           7.4516    0.2023    0.0000 H       1  UNL1        0.0265
     20 H           8.2742   -1.2726    0.0000 H       1  UNL1        0.0268
     21 H           8.6728   -0.5823    0.0000 H       1  UNL1        0.0268
     22 H           9.1403    0.2274    0.0000 H       1  UNL1        0.0268
     23 H           9.5388    0.9177    0.0000 H       1  UNL1        0.0268
     24 H           2.2554   -0.5823    0.0000 H       1  UNL1        0.0268
     25 H           2.6540   -1.2726    0.0000 H       1  UNL1        0.0268
     26 H           3.4766    0.2023    0.0000 H       1  UNL1        0.0265
     27 H           3.0781    0.8926    0.0000 H       1  UNL1        0.0265
     28 H           6.9841   -0.6074    0.0000 H       1  UNL1        0.0307
     29 H           6.5856   -1.2977    0.0000 H       1  UNL1        0.0307
     30 H           4.3426   -1.2977    0.0000 H       1  UNL1        0.0307
     31 H           3.9441   -0.6074    0.0000 H       1  UNL1        0.0307
     32 H           1.3894    0.9177    0.0000 H       1  UNL1        0.0263
     33 H           1.7880    0.2274    0.0000 H       1  UNL1        0.0263
     34 H           8.7162    2.3926    0.0000 H       1  UNL1        0.0307
     35 H           8.3176    1.7023    0.0000 H       1  UNL1        0.0307
     36 H           7.7331   -2.5000    0.0000 H       1  UNL1        0.0569
     37 H           3.1951   -2.5000    0.0000 H       1  UNL1        0.0569
     38 H           5.8626   -1.7150    0.0000 H       1  UNL1        0.0350
     39 H           5.0656   -1.7150    0.0000 H       1  UNL1        0.0350
     40 H           6.3301   -3.3100    0.0000 H       1  UNL1        0.0572
     41 H           2.6200    1.8100    0.0000 H       1  UNL1        0.0230
     42 H           2.0000    2.4300    0.0000 H       1  UNL1        0.0230
     43 H           1.3800    1.8100    0.0000 H       1  UNL1        0.0230
     44 H           4.5981   -3.3100    0.0000 H       1  UNL1        0.0572
     45 H          10.3312    2.0000    0.0000 H       1  UNL1        0.0566
     46 H          10.3312    3.6200    0.0000 H       1  UNL1        0.0532
     47 H           9.2573    3.6200    0.0000 H       1  UNL1        0.0532
@<TRIPOS>BOND
     1     1     2    1
     2     1     3    1
     3     1    18    1
     4     1    19    1
     5     2     5    1
     6     2    20    1
     7     2    21    1
     8     3     8    1
     9     3    22    1
    10     3    23    1
    11     4     6    1
    12     4     7    1
    13     4    24    1
    14     4    25    1
    15     5    10    1
    16     5    28    1
    17     5    29    1
    18     6     9    1
    19     6    26    1
    20     6    27    1
    21     7    11    1
    22     7    30    1
    23     7    31    1
    24     8    16    1
    25     8    34    1
    26     8    35    1
    27     9    14    1
    28     9    32    1
    29     9    33    1
    30    10    13    2
    31    10    36    1
    32    11    15    2
    33    11    37    1
    34    12    13    1
    35    12    15    1
    36    12    38    1
    37    12    39    1
    38    13    40    1
    39    14    41    1
    40    14    42    1
    41    14    43    1
    42    15    44    1
    43    16    17    2
    44    16    45    1
    45    17    46    1
    46    17    47    1
