@<TRIPOS>MOLECULE
IMPHY001751
 85 91 0 0 0
SMALL
GASTEIGER

@<TRIPOS>ATOM
      1 O           9.7872   -1.0215    0.0000 O.3     1  UNL1       -0.4517
      2 O          10.6478   -0.5246    0.0000 O.3     1  UNL1       -0.5029
      3 O          12.4138    0.5131    0.0000 O.3     1  UNL1       -0.4914
      4 O           8.0055   -2.0320    0.0000 O.3     1  UNL1       -0.5033
      5 O           2.8660    2.0530    0.0000 O.3     1  UNL1       -0.4914
      6 O           2.8660    4.0530    0.0000 O.3     1  UNL1       -0.4914
      7 N          13.2599   -4.0530    0.0000 N.3     1  UNL1       -0.2978
      8 N           7.2641    2.5322    0.0000 N.3     1  UNL1       -0.2978
      9 C          12.4017   -3.5561    0.0000 C.3     1  UNL1        0.0403
     10 C          12.4017   -2.5561    0.0000 C.ar    1  UNL1       -0.0152
     11 C          11.5356   -4.0561    0.0000 C.3     1  UNL1       -0.0072
     12 C          13.3117   -2.0493    0.0000 C.ar    1  UNL1       -0.0372
     13 C          14.1253   -3.5689    0.0000 C.3     1  UNL1        0.0032
     14 C          11.5356   -2.0561    0.0000 C.ar    1  UNL1        0.0360
     15 C          14.1510   -2.5775    0.0000 C.3     1  UNL1       -0.0144
     16 C          10.6696   -3.5561    0.0000 C.ar    1  UNL1       -0.0340
     17 C          10.6696   -2.5561    0.0000 C.ar    1  UNL1        0.0352
     18 C          11.5196   -1.0146    0.0000 C.ar    1  UNL1        0.1668
     19 C          13.3197   -1.0077    0.0000 C.ar    1  UNL1       -0.0127
     20 C          13.2525   -5.0530    0.0000 C.3     1  UNL1       -0.0122
     21 C           6.3580    2.0184    0.0000 C.3     1  UNL1        0.0397
     22 C           9.7757   -2.0214    0.0000 C.ar    1  UNL1        0.1776
     23 C          12.4176   -0.4868    0.0000 C.ar    1  UNL1        0.1622
     24 C           9.7757   -4.0908    0.0000 C.ar    1  UNL1       -0.0543
     25 C           5.4641    2.5530    0.0000 C.ar    1  UNL1       -0.0231
     26 C           7.2641    3.5738    0.0000 C.3     1  UNL1        0.0032
     27 C           6.3465    1.0184    0.0000 C.3     1  UNL1       -0.0079
     28 C           6.3580    4.0877    0.0000 C.3     1  UNL1       -0.0144
     29 C           5.4641    3.5530    0.0000 C.ar    1  UNL1       -0.0378
     30 C           8.8696   -2.5353    0.0000 C.ar    1  UNL1        0.1597
     31 C           8.8696   -3.5769    0.0000 C.ar    1  UNL1       -0.0162
     32 C           7.2067    0.5084    0.0000 C.ar    1  UNL1       -0.0453
     33 C           4.5981    2.0530    0.0000 C.ar    1  UNL1       -0.0114
     34 C           8.1282    2.0289    0.0000 C.3     1  UNL1       -0.0122
     35 C           4.5981    4.0530    0.0000 C.ar    1  UNL1       -0.0128
     36 C           8.9270   -0.5115    0.0000 C.ar    1  UNL1        0.1287
     37 C           3.7320    2.5530    0.0000 C.ar    1  UNL1        0.1618
     38 C           3.7320    3.5530    0.0000 C.ar    1  UNL1        0.1618
     39 C           7.1951   -0.4915    0.0000 C.ar    1  UNL1       -0.0550
     40 C           8.0784    0.9984    0.0000 C.ar    1  UNL1       -0.0550
     41 C           8.0553   -1.0015    0.0000 C.ar    1  UNL1       -0.0191
     42 C           8.9386    0.4884    0.0000 C.ar    1  UNL1       -0.0191
     43 C          13.2778    1.0165    0.0000 C.3     1  UNL1        0.0790
     44 C           2.0000    2.5530    0.0000 C.3     1  UNL1        0.0790
     45 C           2.8660    5.0530    0.0000 C.3     1  UNL1        0.0790
     46 H          12.4011   -4.4061    0.0000 H       1  UNL1        0.0516
     47 H          11.1371   -4.5310    0.0000 H       1  UNL1        0.0332
     48 H          11.9342   -4.5310    0.0000 H       1  UNL1        0.0332
     49 H          14.3271   -4.1551    0.0000 H       1  UNL1        0.0430
     50 H          14.7381   -3.4745    0.0000 H       1  UNL1        0.0430
     51 H          14.7581   -2.7034    0.0000 H       1  UNL1        0.0326
     52 H          14.3827   -2.0024    0.0000 H       1  UNL1        0.0326
     53 H          13.8578   -0.6997    0.0000 H       1  UNL1        0.0658
     54 H          12.6325   -5.0484    0.0000 H       1  UNL1        0.0391
     55 H          13.2479   -5.6730    0.0000 H       1  UNL1        0.0391
     56 H          13.8725   -5.0576    0.0000 H       1  UNL1        0.0391
     57 H           6.8920    1.7032    0.0000 H       1  UNL1        0.0515
     58 H           9.7828   -4.7107    0.0000 H       1  UNL1        0.0622
     59 H           7.8750    3.4677    0.0000 H       1  UNL1        0.0430
     60 H           7.4732    4.1575    0.0000 H       1  UNL1        0.0430
     61 H           5.7372    1.1331    0.0000 H       1  UNL1        0.0332
     62 H           6.1277    0.4383    0.0000 H       1  UNL1        0.0332
     63 H           6.7517    4.5667    0.0000 H       1  UNL1        0.0326
     64 H           5.9534    4.5575    0.0000 H       1  UNL1        0.0326
     65 H           8.3339   -3.8890    0.0000 H       1  UNL1        0.0655
     66 H           4.5981    1.4330    0.0000 H       1  UNL1        0.0659
     67 H           7.8161    1.4931    0.0000 H       1  UNL1        0.0391
     68 H           8.6639    1.7168    0.0000 H       1  UNL1        0.0391
     69 H           8.4403    2.5646    0.0000 H       1  UNL1        0.0391
     70 H           4.5981    4.6730    0.0000 H       1  UNL1        0.0658
     71 H          10.6406    0.0953    0.0000 H       1  UNL1        0.2923
     72 H           6.6546   -0.7953    0.0000 H       1  UNL1        0.0621
     73 H           8.0856    1.6183    0.0000 H       1  UNL1        0.0621
     74 H           8.0481   -1.6214    0.0000 H       1  UNL1        0.0654
     75 H           9.4791    0.7922    0.0000 H       1  UNL1        0.0654
     76 H           7.4674   -2.3399    0.0000 H       1  UNL1        0.2923
     77 H          13.5899    0.4807    0.0000 H       1  UNL1        0.0660
     78 H          13.8136    1.3285    0.0000 H       1  UNL1        0.0660
     79 H          12.9658    1.5522    0.0000 H       1  UNL1        0.0660
     80 H           2.3100    3.0899    0.0000 H       1  UNL1        0.0660
     81 H           1.4631    2.8630    0.0000 H       1  UNL1        0.0660
     82 H           1.6900    2.0161    0.0000 H       1  UNL1        0.0660
     83 H           3.4860    5.0530    0.0000 H       1  UNL1        0.0660
     84 H           2.8660    5.6730    0.0000 H       1  UNL1        0.0660
     85 H           2.2460    5.0530    0.0000 H       1  UNL1        0.0660
@<TRIPOS>BOND
     1     1    22    1
     2     1    36    1
     3     2    18    1
     4     2    71    1
     5     3    23    1
     6     3    43    1
     7     4    30    1
     8     4    76    1
     9     5    37    1
    10     5    44    1
    11     6    38    1
    12     6    45    1
    13     7     9    1
    14     7    13    1
    15     7    20    1
    16     8    21    1
    17     8    26    1
    18     8    34    1
    19     9    10    1
    20     9    11    1
    21     9    46    1
    22    10    12   ar
    23    10    14   ar
    24    11    16    1
    25    11    47    1
    26    11    48    1
    27    12    15    1
    28    12    19   ar
    29    13    15    1
    30    13    49    1
    31    13    50    1
    32    14    17    1
    33    14    18   ar
    34    15    51    1
    35    15    52    1
    36    16    17   ar
    37    16    24   ar
    38    17    22   ar
    39    18    23   ar
    40    19    23   ar
    41    19    53    1
    42    20    54    1
    43    20    55    1
    44    20    56    1
    45    21    25    1
    46    21    27    1
    47    21    57    1
    48    22    30   ar
    49    24    31   ar
    50    24    58    1
    51    25    29   ar
    52    25    33   ar
    53    26    28    1
    54    26    59    1
    55    26    60    1
    56    27    32    1
    57    27    61    1
    58    27    62    1
    59    28    29    1
    60    28    63    1
    61    28    64    1
    62    29    35   ar
    63    30    31   ar
    64    31    65    1
    65    32    39   ar
    66    32    40   ar
    67    33    37   ar
    68    33    66    1
    69    34    67    1
    70    34    68    1
    71    34    69    1
    72    35    38   ar
    73    35    70    1
    74    36    41   ar
    75    36    42   ar
    76    37    38   ar
    77    39    41   ar
    78    39    72    1
    79    40    42   ar
    80    40    73    1
    81    41    74    1
    82    42    75    1
    83    43    77    1
    84    43    78    1
    85    43    79    1
    86    44    80    1
    87    44    81    1
    88    44    82    1
    89    45    83    1
    90    45    84    1
    91    45    85    1
