@<TRIPOS>MOLECULE
IMPHY002128
 42 45 0 0 0
SMALL
GASTEIGER

@<TRIPOS>ATOM
      1 O           6.1621    0.1141    0.0000 O.3     1  UNL1       -0.4830
      2 O           8.3061    2.1826    0.0000 O.3     1  UNL1       -0.4870
      3 O          10.2977    1.7816    0.0000 O.3     1  UNL1       -0.5008
      4 O           9.5751   -1.6837    0.0000 O.3     1  UNL1       -0.4913
      5 O          10.9457   -0.1616    0.0000 O.3     1  UNL1       -0.4884
      6 O           2.6726    1.0184    0.0000 O.3     1  UNL1       -0.4950
      7 C           6.6589    1.6474    0.0000 C.3     1  UNL1        0.0630
      8 C           6.9679    0.6963    0.0000 C.3     1  UNL1        0.1387
      9 C           5.6648    1.6448    0.0000 C.ar    1  UNL1        0.0047
     10 C           7.3280    2.3905    0.0000 C.3     1  UNL1        0.1004
     11 C           7.9460    0.4884    0.0000 C.ar    1  UNL1        0.0423
     12 C           5.3584    0.6991    0.0000 C.ar    1  UNL1        0.1286
     13 C           8.6152    1.2316    0.0000 C.ar    1  UNL1        0.1723
     14 C           4.9832    2.4243    0.0000 C.ar    1  UNL1       -0.0511
     15 C           8.2526   -0.5071    0.0000 C.ar    1  UNL1       -0.0059
     16 C           4.3492    0.4674    0.0000 C.ar    1  UNL1        0.0221
     17 C           9.6372    1.0307    0.0000 C.ar    1  UNL1        0.2052
     18 C           9.2698   -0.7315    0.0000 C.ar    1  UNL1        0.1658
     19 C           3.9689    2.2160    0.0000 C.ar    1  UNL1       -0.0195
     20 C           3.6498    1.2309    0.0000 C.ar    1  UNL1        0.1236
     21 C           9.9668    0.0426    0.0000 C.ar    1  UNL1        0.2071
     22 C           8.9031   -2.4243    0.0000 C.3     1  UNL1        0.0790
     23 C          11.2584   -1.1114    0.0000 C.3     1  UNL1        0.0791
     24 C           2.0000    1.7583    0.0000 C.3     1  UNL1        0.0788
     25 H           6.4060    2.2134    0.0000 H       1  UNL1        0.0423
     26 H           7.0960    0.0897    0.0000 H       1  UNL1        0.0793
     27 H           7.5602    2.9654    0.0000 H       1  UNL1        0.0704
     28 H           6.8022    2.7191    0.0000 H       1  UNL1        0.0704
     29 H           5.1811    3.0119    0.0000 H       1  UNL1        0.0623
     30 H           7.8324   -0.9630    0.0000 H       1  UNL1        0.0660
     31 H           4.1650   -0.1246    0.0000 H       1  UNL1        0.0691
     32 H           3.5554    2.6779    0.0000 H       1  UNL1        0.0654
     33 H          10.9056    1.6597    0.0000 H       1  UNL1        0.2924
     34 H           8.4440   -2.0077    0.0000 H       1  UNL1        0.0660
     35 H           8.4865   -2.8834    0.0000 H       1  UNL1        0.0660
     36 H           9.3623   -2.8409    0.0000 H       1  UNL1        0.0660
     37 H          10.6695   -1.3053    0.0000 H       1  UNL1        0.0660
     38 H          11.4522   -1.7003    0.0000 H       1  UNL1        0.0660
     39 H          11.8473   -0.9176    0.0000 H       1  UNL1        0.0660
     40 H           2.4588    2.1754    0.0000 H       1  UNL1        0.0660
     41 H           1.5830    2.2171    0.0000 H       1  UNL1        0.0660
     42 H           1.5412    1.3413    0.0000 H       1  UNL1        0.0660
@<TRIPOS>BOND
     1     1     8    1
     2     1    12    1
     3     2    10    1
     4     2    13    1
     5     3    17    1
     6     3    33    1
     7     4    18    1
     8     4    22    1
     9     5    21    1
    10     5    23    1
    11     6    20    1
    12     6    24    1
    13     7     8    1
    14     7     9    1
    15     7    10    1
    16     7    25    1
    17     8    11    1
    18     8    26    1
    19     9    12   ar
    20     9    14   ar
    21    10    27    1
    22    10    28    1
    23    11    13   ar
    24    11    15   ar
    25    12    16   ar
    26    13    17   ar
    27    14    19   ar
    28    14    29    1
    29    15    18   ar
    30    15    30    1
    31    16    20   ar
    32    16    31    1
    33    17    21   ar
    34    18    21   ar
    35    19    20   ar
    36    19    32    1
    37    22    34    1
    38    22    35    1
    39    22    36    1
    40    23    37    1
    41    23    38    1
    42    23    39    1
    43    24    40    1
    44    24    41    1
    45    24    42    1
