@<TRIPOS>MOLECULE
IMPHY013825
 34 37 0 0 0
SMALL
GASTEIGER

@<TRIPOS>ATOM
      1 O           2.8779   -2.4360    0.0000 O.3     1  UNL1       -0.3870
      2 O           4.6894   -3.4818    0.0000 O.3     1  UNL1       -0.3863
      3 O           6.4927   -2.4221    0.0000 O.3     1  UNL1       -0.3851
      4 O           6.2392    2.8820    0.0000 O.3     1  UNL1       -0.4526
      5 O           4.8454    3.6867    0.0000 O.3     1  UNL1       -0.4526
      6 O           2.0000    1.2180    0.0000 O.2     1  UNL1       -0.2702
      7 N           2.8522   -0.3336    0.0000 N.am    1  UNL1       -0.3019
      8 C           3.7542   -0.8544    0.0000 C.3     1  UNL1        0.0774
      9 C           3.7459   -1.9393    0.0000 C.3     1  UNL1        0.1061
     10 C           4.6855   -2.4818    0.0000 C.3     1  UNL1        0.1124
     11 C           4.6523   -0.3266    0.0000 C.2     1  UNL1       -0.0181
     12 C           5.6209   -1.9321    0.0000 C.3     1  UNL1        0.1023
     13 C           5.6042   -0.8472    0.0000 C.2     1  UNL1       -0.0477
     14 C           4.6362    0.7149    0.0000 C.ar    1  UNL1       -0.0044
     15 C           3.7702    1.2149    0.0000 C.ar    1  UNL1        0.0478
     16 C           2.8602    0.7080    0.0000 C.2     1  UNL1        0.2453
     17 C           5.5022    1.2149    0.0000 C.ar    1  UNL1       -0.0080
     18 C           3.7702    2.2149    0.0000 C.ar    1  UNL1       -0.0035
     19 C           5.5022    2.2149    0.0000 C.ar    1  UNL1        0.1668
     20 C           4.6362    2.7149    0.0000 C.ar    1  UNL1        0.1670
     21 C           5.8341    3.7898    0.0000 C.3     1  UNL1        0.2332
     22 H           3.0165   -1.2765    0.0000 H       1  UNL1        0.0575
     23 H           3.2107   -1.6262    0.0000 H       1  UNL1        0.0642
     24 H           4.1492   -2.7929    0.0000 H       1  UNL1        0.0649
     25 H           6.1536   -1.6149    0.0000 H       1  UNL1        0.0665
     26 H           6.1351   -0.5270    0.0000 H       1  UNL1        0.0602
     27 H           2.3140   -0.6415    0.0000 H       1  UNL1        0.1497
     28 H           6.0392    0.9049    0.0000 H       1  UNL1        0.0661
     29 H           2.8755   -3.0560    0.0000 H       1  UNL1        0.2100
     30 H           3.2332    2.5249    0.0000 H       1  UNL1        0.0663
     31 H           5.2275   -3.7898    0.0000 H       1  UNL1        0.2100
     32 H           7.0260   -2.1059    0.0000 H       1  UNL1        0.2103
     33 H           6.4237    3.9815    0.0000 H       1  UNL1        0.1166
     34 H           5.7054    4.3962    0.0000 H       1  UNL1        0.1166
@<TRIPOS>BOND
     1     9     1    1
     2     1    29    1
     3    10     2    1
     4     2    31    1
     5    12     3    1
     6     3    32    1
     7     4    19    1
     8     4    21    1
     9     5    20    1
    10     5    21    1
    11     6    16    2
    12     7     8    1
    13     7    16   am
    14     7    27    1
    15     8     9    1
    16     8    11    1
    17     8    22    1
    18     9    10    1
    19     9    23    1
    20    10    12    1
    21    10    24    1
    22    11    13    2
    23    11    14    1
    24    12    13    1
    25    12    25    1
    26    13    26    1
    27    14    15   ar
    28    14    17   ar
    29    15    16    1
    30    15    18   ar
    31    17    19   ar
    32    17    28    1
    33    18    20   ar
    34    18    30    1
    35    19    20   ar
    36    21    33    1
    37    21    34    1
