@<TRIPOS>MOLECULE
IMPHY001611
 37 37 0 0 0
SMALL
GASTEIGER

@<TRIPOS>ATOM
      1 O           2.5369   -2.7500    0.0000 O.3     1  UNL1       -0.5065
      2 O           4.2690    2.2500    0.0000 O.2     1  UNL1       -0.2927
      3 C           4.2690    0.2500    0.0000 C.3     1  UNL1       -0.0116
      4 C           5.1350    0.7500    0.0000 C.3     1  UNL1        0.0164
      5 C           4.2690   -0.7500    0.0000 C.ar    1  UNL1       -0.0407
      6 C           3.4030    0.7500    0.0000 C.3     1  UNL1       -0.0580
      7 C           3.4030   -1.2500    0.0000 C.ar    1  UNL1       -0.0165
      8 C           5.1350   -1.2500    0.0000 C.ar    1  UNL1       -0.0578
      9 C           5.1350    1.7500    0.0000 C.2     1  UNL1        0.1566
     10 C           3.4030   -2.2500    0.0000 C.ar    1  UNL1        0.1200
     11 C           4.2690   -2.7500    0.0000 C.ar    1  UNL1       -0.0090
     12 C           5.1350   -2.2500    0.0000 C.ar    1  UNL1       -0.0551
     13 C           6.0010    2.2500    0.0000 C.2     1  UNL1       -0.0205
     14 C           4.2690   -3.7500    0.0000 C.3     1  UNL1       -0.0363
     15 C           6.0010    3.2500    0.0000 C.2     1  UNL1       -0.0724
     16 C           6.8671    3.7500    0.0000 C.3     1  UNL1       -0.0437
     17 C           5.1350    3.7500    0.0000 C.3     1  UNL1       -0.0437
     18 H           4.2690    0.8700    0.0000 H       1  UNL1        0.0350
     19 H           5.3471    0.1674    0.0000 H       1  UNL1        0.0351
     20 H           5.7456    0.8577    0.0000 H       1  UNL1        0.0351
     21 H           3.7130    1.2869    0.0000 H       1  UNL1        0.0236
     22 H           2.8660    1.0600    0.0000 H       1  UNL1        0.0236
     23 H           3.0930    0.2131    0.0000 H       1  UNL1        0.0236
     24 H           2.8660   -0.9400    0.0000 H       1  UNL1        0.0657
     25 H           5.6720   -0.9400    0.0000 H       1  UNL1        0.0620
     26 H           5.6720   -2.5600    0.0000 H       1  UNL1        0.0621
     27 H           6.5380    1.9400    0.0000 H       1  UNL1        0.0652
     28 H           3.6490   -3.7500    0.0000 H       1  UNL1        0.0279
     29 H           4.2690   -4.3700    0.0000 H       1  UNL1        0.0279
     30 H           4.8890   -3.7500    0.0000 H       1  UNL1        0.0279
     31 H           7.1771    3.2131    0.0000 H       1  UNL1        0.0274
     32 H           7.4040    4.0600    0.0000 H       1  UNL1        0.0274
     33 H           6.5571    4.2869    0.0000 H       1  UNL1        0.0274
     34 H           5.4450    4.2869    0.0000 H       1  UNL1        0.0274
     35 H           4.5981    4.0600    0.0000 H       1  UNL1        0.0274
     36 H           4.8250    3.2131    0.0000 H       1  UNL1        0.0274
     37 H           2.0000   -2.4400    0.0000 H       1  UNL1        0.2921
@<TRIPOS>BOND
     1     1    10    1
     2     1    37    1
     3     2     9    2
     4     3     4    1
     5     3     5    1
     6     3     6    1
     7     3    18    1
     8     4     9    1
     9     4    19    1
    10     4    20    1
    11     5     7   ar
    12     5     8   ar
    13     6    21    1
    14     6    22    1
    15     6    23    1
    16     7    10   ar
    17     7    24    1
    18     8    12   ar
    19     8    25    1
    20     9    13    1
    21    10    11   ar
    22    11    12   ar
    23    11    14    1
    24    12    26    1
    25    13    15    2
    26    13    27    1
    27    14    28    1
    28    14    29    1
    29    14    30    1
    30    15    16    1
    31    15    17    1
    32    16    31    1
    33    16    32    1
    34    16    33    1
    35    17    34    1
    36    17    35    1
    37    17    36    1
