@<TRIPOS>MOLECULE
IMPHY016028
 18 17 0 0 0
SMALL
GASTEIGER

@<TRIPOS>ATOM
      1 S1          2.8660   -1.0000    0.0000 S.O     1  <1>         0.0211
      2 O1          5.4641    0.5000    0.0000 O.3     1  <1>        -0.4795
      3 O2          2.0000   -0.5000    0.0000 O.2     1  <1>        -0.2574
      4 O3          4.5981    2.0000    0.0000 O.2     1  <1>        -0.2492
      5 N1          2.8660    1.0000    0.0000 N.3     1  <1>        -0.3177
      6 C1          3.7320    0.5000    0.0000 C.3     1  <1>         0.1146
      7 C2          3.7320   -0.5000    0.0000 C.3     1  <1>         0.0486
      8 C3          4.5981    1.0000    0.0000 C.2     1  <1>         0.3226
      9 C4          2.8660   -2.0000    0.0000 C.3     1  <1>         0.0118
     10 H1          3.7320    1.1200    0.0000 H       1  <1>         0.0583
     11 H2          3.9441   -1.0826    0.0000 H       1  <1>         0.0421
     12 H3          4.3426   -0.3923    0.0000 H       1  <1>         0.0421
     13 H4          2.3291    0.6900    0.0000 H       1  <1>         0.1190
     14 H5          2.8660    1.6200    0.0000 H       1  <1>         0.1190
     15 H6          2.2460   -2.0000    0.0000 H       1  <1>         0.0365
     16 H7          2.8660   -2.6200    0.0000 H       1  <1>         0.0365
     17 H8          3.4860   -2.0000    0.0000 H       1  <1>         0.0365
     18 H9          6.0010    0.8100    0.0000 H       1  <1>         0.2951
@<TRIPOS>BOND
     1     1     3    2
     2     1     7    1
     3     1     9    1
     4     2     8    1
     5     2    18    1
     6     4     8    2
     7     6     5    1
     8     5    13    1
     9     5    14    1
    10     6     7    1
    11     6     8    1
    12     6    10    1
    13     7    11    1
    14     7    12    1
    15     9    15    1
    16     9    16    1
    17     9    17    1
