@<TRIPOS>MOLECULE
IMPHY009180
 48 50 0 0 0
SMALL
GASTEIGER

@<TRIPOS>ATOM
      1 O           6.3580   -0.1743    0.0000 O.2     1  UNL1       -0.4505
      2 O           4.5981   -1.1396    0.0000 O.3     1  UNL1       -0.4885
      3 O           7.2564   -1.6604    0.0000 O.3     1  UNL1       -0.4906
      4 O           2.8660   -0.1396    0.0000 O.3     1  UNL1       -0.4912
      5 O           8.9846   -2.6671    0.0000 O.3     1  UNL1       -0.4885
      6 O           4.5981    2.8604    0.0000 O.3     1  UNL1       -0.5058
      7 O          10.7205   -1.6738    0.0000 O.3     1  UNL1       -0.4913
      8 O           6.3465    2.8950    0.0000 O.2     1  UNL1       -0.2869
      9 C           5.4641    1.3604    0.0000 C.ar    1  UNL1        0.1091
     10 C           5.4641    0.3604    0.0000 C.ar    1  UNL1        0.1878
     11 C           7.2641    0.3396    0.0000 C.ar    1  UNL1        0.1430
     12 C           8.1282   -0.1637    0.0000 C.ar    1  UNL1        0.0629
     13 C           4.5981   -0.1396    0.0000 C.ar    1  UNL1        0.2051
     14 C           6.3580    1.8951    0.0000 C.ar    1  UNL1        0.1967
     15 C           7.2641    1.3812    0.0000 C.ar    1  UNL1        0.0289
     16 C           8.1244   -1.1637    0.0000 C.ar    1  UNL1        0.1758
     17 C           4.5981    1.8604    0.0000 C.ar    1  UNL1        0.1349
     18 C           3.7320    0.3604    0.0000 C.ar    1  UNL1        0.1687
     19 C           8.9962    0.3329    0.0000 C.ar    1  UNL1       -0.0439
     20 C           8.9884   -1.6671    0.0000 C.ar    1  UNL1        0.2042
     21 C           3.7320    1.3604    0.0000 C.ar    1  UNL1        0.0261
     22 C           9.8564   -1.1704    0.0000 C.ar    1  UNL1        0.1652
     23 C           9.8602   -0.1704    0.0000 C.ar    1  UNL1       -0.0154
     24 C           3.7320   -1.6396    0.0000 C.3     1  UNL1        0.0791
     25 C           7.2526   -2.6604    0.0000 C.3     1  UNL1        0.0790
     26 C           2.0000    0.3604    0.0000 C.3     1  UNL1        0.0790
     27 C           9.8487   -3.1704    0.0000 C.3     1  UNL1        0.0791
     28 C          11.5884   -1.1771    0.0000 C.3     1  UNL1        0.0790
     29 H           7.7998    1.6933    0.0000 H       1  UNL1        0.0693
     30 H           8.9985    0.9529    0.0000 H       1  UNL1        0.0627
     31 H           3.1951    1.6704    0.0000 H       1  UNL1        0.0692
     32 H          10.3984    0.1375    0.0000 H       1  UNL1        0.0655
     33 H           4.0611    3.1704    0.0000 H       1  UNL1        0.2922
     34 H           3.4220   -1.1027    0.0000 H       1  UNL1        0.0660
     35 H           3.1951   -1.9496    0.0000 H       1  UNL1        0.0660
     36 H           4.0420   -2.1765    0.0000 H       1  UNL1        0.0660
     37 H           6.6326   -2.6580    0.0000 H       1  UNL1        0.0660
     38 H           7.2502   -3.2804    0.0000 H       1  UNL1        0.0660
     39 H           7.8725   -2.6628    0.0000 H       1  UNL1        0.0660
     40 H           2.3100    0.8973    0.0000 H       1  UNL1        0.0660
     41 H           1.4631    0.6704    0.0000 H       1  UNL1        0.0660
     42 H           1.6900   -0.1765    0.0000 H       1  UNL1        0.0660
     43 H           9.5366   -3.7061    0.0000 H       1  UNL1        0.0660
     44 H          10.3844   -3.4825    0.0000 H       1  UNL1        0.0660
     45 H          10.1607   -2.6347    0.0000 H       1  UNL1        0.0660
     46 H          11.8964   -1.7152    0.0000 H       1  UNL1        0.0660
     47 H          12.1266   -0.8692    0.0000 H       1  UNL1        0.0660
     48 H          11.2805   -0.6390    0.0000 H       1  UNL1        0.0660
@<TRIPOS>BOND
     1     1    10   ar
     2     1    11   ar
     3     2    13    1
     4     2    24    1
     5     3    16    1
     6     3    25    1
     7     4    18    1
     8     4    26    1
     9     5    20    1
    10     5    27    1
    11     6    17    1
    12     6    33    1
    13     7    22    1
    14     7    28    1
    15     8    14    2
    16     9    10   ar
    17     9    14   ar
    18     9    17   ar
    19    10    13   ar
    20    11    12    1
    21    11    15   ar
    22    12    16   ar
    23    12    19   ar
    24    13    18   ar
    25    14    15   ar
    26    15    29    1
    27    16    20   ar
    28    17    21   ar
    29    18    21   ar
    30    19    23   ar
    31    19    30    1
    32    20    22   ar
    33    21    31    1
    34    22    23   ar
    35    23    32    1
    36    24    34    1
    37    24    35    1
    38    24    36    1
    39    25    37    1
    40    25    38    1
    41    25    39    1
    42    26    40    1
    43    26    41    1
    44    26    42    1
    45    27    43    1
    46    27    44    1
    47    27    45    1
    48    28    46    1
    49    28    47    1
    50    28    48    1
