@<TRIPOS>MOLECULE
IMPHY006342
 42 43 0 0 0
SMALL
GASTEIGER

@<TRIPOS>ATOM
      1 O           6.3301   -2.5000    0.0000 O.3     1  UNL1       -0.4913
      2 O           2.8660   -2.5000    0.0000 O.3     1  UNL1       -0.4913
      3 O           4.5981   -3.5000    0.0000 O.3     1  UNL1       -0.4885
      4 O           7.1962    1.0000    0.0000 O.2     1  UNL1       -0.2702
      5 O           4.5981    2.5000    0.0000 O.2     1  UNL1       -0.2702
      6 N           6.3301    2.5000    0.0000 N.am    1  UNL1       -0.2348
      7 C           6.3301    3.5000    0.0000 C.3     1  UNL1        0.0263
      8 C           7.1962    4.0000    0.0000 C.3     1  UNL1       -0.0179
      9 C           8.0622    3.5000    0.0000 C.2     1  UNL1       -0.0776
     10 C           7.1962    2.0000    0.0000 C.2     1  UNL1        0.2456
     11 C           5.4641    2.0000    0.0000 C.2     1  UNL1        0.2459
     12 C           8.0622    2.5000    0.0000 C.2     1  UNL1       -0.0031
     13 C           4.5981   -0.5000    0.0000 C.ar    1  UNL1       -0.0177
     14 C           5.4641    1.0000    0.0000 C.2     1  UNL1        0.0013
     15 C           4.5981    0.5000    0.0000 C.2     1  UNL1       -0.0494
     16 C           3.7320   -1.0000    0.0000 C.ar    1  UNL1       -0.0089
     17 C           5.4641   -1.0000    0.0000 C.ar    1  UNL1       -0.0089
     18 C           5.4641   -2.0000    0.0000 C.ar    1  UNL1        0.1657
     19 C           3.7320   -2.0000    0.0000 C.ar    1  UNL1        0.1657
     20 C           4.5981   -2.5000    0.0000 C.ar    1  UNL1        0.2035
     21 C           3.7320   -4.0000    0.0000 C.3     1  UNL1        0.0791
     22 C           7.1962   -2.0000    0.0000 C.3     1  UNL1        0.0790
     23 C           2.0000   -2.0000    0.0000 C.3     1  UNL1        0.0790
     24 H           6.1181    4.0826    0.0000 H       1  UNL1        0.0473
     25 H           5.7196    3.3923    0.0000 H       1  UNL1        0.0473
     26 H           7.5947    4.4750    0.0000 H       1  UNL1        0.0323
     27 H           6.7976    4.4750    0.0000 H       1  UNL1        0.0323
     28 H           8.5991    3.8100    0.0000 H       1  UNL1        0.0574
     29 H           8.5991    2.1900    0.0000 H       1  UNL1        0.0666
     30 H           6.0010    0.6900    0.0000 H       1  UNL1        0.0670
     31 H           4.0611    0.8100    0.0000 H       1  UNL1        0.0625
     32 H           3.1951   -0.6900    0.0000 H       1  UNL1        0.0661
     33 H           6.0010   -0.6900    0.0000 H       1  UNL1        0.0661
     34 H           3.4220   -3.4631    0.0000 H       1  UNL1        0.0660
     35 H           3.1951   -4.3100    0.0000 H       1  UNL1        0.0660
     36 H           4.0420   -4.5369    0.0000 H       1  UNL1        0.0660
     37 H           7.5062   -2.5369    0.0000 H       1  UNL1        0.0660
     38 H           7.7331   -1.6900    0.0000 H       1  UNL1        0.0660
     39 H           6.8862   -1.4631    0.0000 H       1  UNL1        0.0660
     40 H           2.3100   -1.4631    0.0000 H       1  UNL1        0.0660
     41 H           1.4631   -1.6900    0.0000 H       1  UNL1        0.0660
     42 H           1.6900   -2.5369    0.0000 H       1  UNL1        0.0660
@<TRIPOS>BOND
     1     1    18    1
     2     1    22    1
     3     2    19    1
     4     2    23    1
     5     3    20    1
     6     3    21    1
     7     4    10    2
     8     5    11    2
     9     6     7    1
    10     6    10   am
    11     6    11   am
    12     7     8    1
    13     7    24    1
    14     7    25    1
    15     8     9    1
    16     8    26    1
    17     8    27    1
    18     9    12    2
    19     9    28    1
    20    10    12    1
    21    11    14    1
    22    12    29    1
    23    13    15    1
    24    13    16   ar
    25    13    17   ar
    26    14    15    2
    27    14    30    1
    28    15    31    1
    29    16    19   ar
    30    16    32    1
    31    17    18   ar
    32    17    33    1
    33    18    20   ar
    34    19    20   ar
    35    21    34    1
    36    21    35    1
    37    21    36    1
    38    22    37    1
    39    22    38    1
    40    22    39    1
    41    23    40    1
    42    23    41    1
    43    23    42    1
