@<TRIPOS>MOLECULE
IMPHY010648
 59 65 0 0 0
SMALL
GASTEIGER

@<TRIPOS>ATOM
      1 O           3.4366   -5.7276    0.0000 O.3     1  UNL1       -0.3257
      2 C           2.2911   -5.0488    0.0000 C.3     1  UNL1        0.1803
      3 C           1.1455   -5.7276    0.0000 C.3     1  UNL1        0.2143
      4 C           1.1455   -7.0429    0.0000 C.3     1  UNL1        0.2198
      5 C           2.2911   -7.7005    0.0000 C.3     1  UNL1        0.2406
      6 C           3.4366   -7.0429    0.0000 C.3     1  UNL1        0.2694
      7 O           0.0000   -5.0488    0.0000 O.3     1  UNL1       -0.2176
      8 O           0.0000   -7.7005    0.0000 O.3     1  UNL1       -0.2174
      9 O           2.2911   -9.0369    0.0000 O.3     1  UNL1       -0.2149
     10 O           4.5821   -7.7005    0.0000 O.3     1  UNL1       -0.3305
     11 C           5.7276   -7.0429    0.0000 C.3     1  UNL1        0.1276
     12 C           5.7276   -5.7276    0.0000 C.3     1  UNL1        0.0302
     13 C           6.8519   -5.0700    0.0000 C.3     1  UNL1        0.0019
     14 C           7.9975   -5.7276    0.0000 C.3     1  UNL1       -0.0058
     15 C           9.1430   -5.0700    0.0000 C.3     1  UNL1       -0.0150
     16 C          10.2885   -5.7276    0.0000 C.3     1  UNL1        0.0001
     17 C          10.2885   -7.0429    0.0000 C.3     1  UNL1       -0.0003
     18 C           9.1430   -7.7005    0.0000 C.3     1  UNL1       -0.0033
     19 C           7.9975   -7.0429    0.0000 C.3     1  UNL1       -0.0073
     20 C           6.8519   -7.7005    0.0000 C.3     1  UNL1        0.1153
     21 C           9.1430   -3.7548    0.0000 C.3     1  UNL1        0.0214
     22 C          10.2885   -3.0972    0.0000 C.2     1  UNL1       -0.0352
     23 C          11.4128   -3.7548    0.0000 C.2     1  UNL1       -0.0527
     24 C          11.4128   -5.0700    0.0000 C.3     1  UNL1        0.0168
     25 C          12.5584   -5.7276    0.0000 C.3     1  UNL1        0.0371
     26 C          13.7039   -5.0700    0.0000 C.3     1  UNL1        0.1622
     27 C          13.7039   -3.7548    0.0000 C.3     1  UNL1        0.1173
     28 C          14.8282   -3.0972    0.0000 C.3     1  UNL1        0.0131
     29 C          14.8282   -1.7819    0.0000 C.3     1  UNL1        0.0006
     30 C          13.7039   -1.1243    0.0000 C.3     1  UNL1        0.0000
     31 C          12.5584   -1.7819    0.0000 C.3     1  UNL1        0.0004
     32 C          12.5584   -3.0972    0.0000 C.3     1  UNL1        0.0078
     33 C           7.9975   -4.4124    0.0000 C.3     1  UNL1       -0.0006
     34 C          10.2885   -4.3700    0.0000 C.3     1  UNL1        0.0000
     35 C           6.2367   -8.9945    0.0000 C.3     1  UNL1        0.0134
     36 C           7.5520   -8.8884    0.0000 C.2     1  UNL1        0.3658
     37 O           6.8944  -10.0340    0.0000 O.co2   1  UNL1       -0.2456
     38 C          11.4553   -6.4701    0.0000 C.3     1  UNL1        0.0041
     39 O          14.9555   -5.8125    0.0000 O.3     1  UNL1       -0.2226
     40 C          15.2525   -3.7548    0.0000 C.2     1  UNL1        0.3202
     41 O          15.9313   -4.8791    0.0000 O.2     1  UNL1       -0.2500
     42 C          14.3615    0.0000    0.0000 C.3     1  UNL1        0.0000
     43 C          13.0463    0.0000    0.0000 C.3     1  UNL1        0.0000
     44 O           8.8884   -8.8884    0.0000 O.co2   1  UNL1       -0.2456
     45 O          15.9101   -2.6093    0.0000 O.3     1  UNL1       -0.4215
     46 C          17.2465   -2.6093    0.0000 C.3     1  UNL1        0.3240
     47 O          17.9041   -3.7548    0.0000 O.3     1  UNL1       -0.3156
     48 C          19.2194   -3.7548    0.0000 C.3     1  UNL1        0.1846
     49 C          19.8770   -2.6093    0.0000 C.3     1  UNL1        0.2145
     50 C          19.2194   -1.4637    0.0000 C.3     1  UNL1        0.2211
     51 C          17.9041   -1.4637    0.0000 C.3     1  UNL1        0.2542
     52 C          19.8770   -4.9003    0.0000 C.3     1  UNL1        0.2142
     53 O          21.2134   -4.9003    0.0000 O.3     1  UNL1       -0.2176
     54 O          21.2134   -2.6093    0.0000 O.3     1  UNL1       -0.2176
     55 O          19.8770   -0.2970    0.0000 O.3     1  UNL1       -0.2173
     56 O          17.2465   -0.2970    0.0000 O.3     1  UNL1       -0.2135
     57 H           9.1430   -6.4489    0.0000 H       1  UNL1        0.0322
     58 H          12.5584   -4.4972    0.0000 H       1  UNL1        0.0364
     59 H           7.9763   -8.2520    0.0000 H       1  UNL1        0.0324
@<TRIPOS>BOND
     1     1     6    1
     2     1     2    1
     3     2     3    1
     4     3     4    1
     5     3     7    1
     6     4     5    1
     7     4     8    1
     8     5     6    1
     9     5     9    1
    10     6    10    1
    11    11    10    1
    12    11    20    1
    13    11    12    1
    14    12    13    1
    15    13    14    1
    16    14    15    1
    17    14    19    1
    18    14    33    1
    19    15    16    1
    20    15    21    1
    21    15    57    1
    22    16    17    1
    23    16    24    1
    24    16    34    1
    25    17    18    1
    26    18    19    1
    27    19    20    1
    28    19    59    1
    29    20    35    1
    30    20    36    1
    31    21    22    1
    32    22    23    2
    33    23    32    1
    34    23    24    1
    35    24    38    1
    36    24    25    1
    37    25    26    1
    38    26    27    1
    39    26    39    1
    40    27    28    1
    41    27    32    1
    42    27    40    1
    43    28    29    1
    44    29    30    1
    45    30    31    1
    46    30    42    1
    47    30    43    1
    48    31    32    1
    49    32    58    1
    50    36    37   ar
    51    36    44   ar
    52    40    41    2
    53    40    45    1
    54    46    45    1
    55    46    51    1
    56    46    47    1
    57    47    48    1
    58    48    49    1
    59    48    52    1
    60    49    50    1
    61    49    54    1
    62    50    51    1
    63    50    55    1
    64    51    56    1
    65    52    53    1
