@<TRIPOS>MOLECULE
IMPHY011274
 45 49 0 0 0
SMALL
GASTEIGER

@<TRIPOS>ATOM
      1 O           7.1256   -2.4028    0.0000 O.3     1  UNL1       -0.3418
      2 O           7.9916   -1.9028    0.0000 O.3     1  UNL1       -0.3626
      3 O           4.8449    2.0928    0.0000 O.3     1  UNL1       -0.3757
      4 O           2.6079   -1.0645    0.0000 O.3     1  UNL1       -0.4526
      5 O           2.6079   -2.7410    0.0000 O.3     1  UNL1       -0.4526
      6 N           7.4575    0.1721    0.0000 N.3     1  UNL1       -0.2959
      7 C           6.2596   -0.9028    0.0000 C.3     1  UNL1        0.0847
      8 C           6.4688    0.0690    0.0000 C.3     1  UNL1        0.0310
      9 C           7.1256   -1.4028    0.0000 C.3     1  UNL1        0.1952
     10 C           7.8626   -0.7357    0.0000 C.3     1  UNL1        0.0542
     11 C           6.1666    1.0594    0.0000 C.3     1  UNL1       -0.0061
     12 C           5.3935   -1.4028    0.0000 C.ar    1  UNL1       -0.0218
     13 C           5.2440   -0.7005    0.0000 C.2     1  UNL1       -0.0685
     14 C           5.3086    1.2069    0.0000 C.3     1  UNL1        0.0779
     15 C           5.3935   -2.4028    0.0000 C.ar    1  UNL1       -0.0139
     16 C           4.7664    0.3609    0.0000 C.2     1  UNL1       -0.0585
     17 C           6.2596   -2.9028    0.0000 C.3     1  UNL1        0.0764
     18 C           7.9575    1.0381    0.0000 C.3     1  UNL1       -0.0122
     19 C           4.4996   -0.8681    0.0000 C.ar    1  UNL1       -0.0116
     20 C           4.4996   -2.9374    0.0000 C.ar    1  UNL1       -0.0105
     21 C           3.5935   -1.3820    0.0000 C.ar    1  UNL1        0.1665
     22 C           3.5935   -2.4236    0.0000 C.ar    1  UNL1        0.1666
     23 C           5.3802    2.9374    0.0000 C.3     1  UNL1        0.0372
     24 C           2.0000   -1.9028    0.0000 C.3     1  UNL1        0.2332
     25 H           6.9384    0.7775    0.0000 H       1  UNL1        0.0477
     26 H           8.2280   -1.2366    0.0000 H       1  UNL1        0.0480
     27 H           8.3991   -0.4249    0.0000 H       1  UNL1        0.0480
     28 H           6.7804    1.1464    0.0000 H       1  UNL1        0.0309
     29 H           6.1757    1.6794    0.0000 H       1  UNL1        0.0309
     30 H           4.8579   -1.1856    0.0000 H       1  UNL1        0.0581
     31 H           5.6736    1.7081    0.0000 H       1  UNL1        0.0641
     32 H           4.1481    0.4065    0.0000 H       1  UNL1        0.0595
     33 H           5.8610   -3.3777    0.0000 H       1  UNL1        0.0611
     34 H           6.6581   -3.3777    0.0000 H       1  UNL1        0.0611
     35 H           8.4944    0.7281    0.0000 H       1  UNL1        0.0391
     36 H           8.2675    1.5750    0.0000 H       1  UNL1        0.0391
     37 H           7.4205    1.3481    0.0000 H       1  UNL1        0.0391
     38 H           8.5285   -1.5928    0.0000 H       1  UNL1        0.2128
     39 H           4.5068   -0.2482    0.0000 H       1  UNL1        0.0658
     40 H           4.5068   -3.5574    0.0000 H       1  UNL1        0.0659
     41 H           5.9039    2.6055    0.0000 H       1  UNL1        0.0524
     42 H           5.7122    3.4611    0.0000 H       1  UNL1        0.0524
     43 H           4.8566    3.2694    0.0000 H       1  UNL1        0.0524
     44 H           1.5391   -1.4881    0.0000 H       1  UNL1        0.1166
     45 H           1.5391   -2.3175    0.0000 H       1  UNL1        0.1166
@<TRIPOS>BOND
     1     1     9    1
     2     1    17    1
     3     9     2    1
     4     2    38    1
     5    14     3    1
     6     3    23    1
     7     4    21    1
     8     4    24    1
     9     5    22    1
    10     5    24    1
    11     6     8    1
    12     6    10    1
    13     6    18    1
    14     7     8    1
    15     7     9    1
    16     7    12    1
    17     7    13    1
    18     8    11    1
    19     8    25    1
    20     9    10    1
    21    10    26    1
    22    10    27    1
    23    11    14    1
    24    11    28    1
    25    11    29    1
    26    12    15   ar
    27    12    19   ar
    28    13    16    2
    29    13    30    1
    30    14    16    1
    31    14    31    1
    32    15    17    1
    33    15    20   ar
    34    16    32    1
    35    17    33    1
    36    17    34    1
    37    18    35    1
    38    18    36    1
    39    18    37    1
    40    19    21   ar
    41    19    39    1
    42    20    22   ar
    43    20    40    1
    44    21    22   ar
    45    23    41    1
    46    23    42    1
    47    23    43    1
    48    24    44    1
    49    24    45    1
