@<TRIPOS>MOLECULE
IMPHY000316
 38 40 0 0 0
SMALL
GASTEIGER

@<TRIPOS>ATOM
      1 O          10.7404   -1.5547    0.0000 O.2     1  UNL1       -0.4628
      2 O           8.9282    1.2500    0.0000 O.3     1  UNL1       -0.4937
      3 O           7.1962    1.2500    0.0000 O.2     1  UNL1       -0.2872
      4 C           9.7942   -0.2500    0.0000 C.ar    1  UNL1        0.0624
      5 C           8.9282    0.2500    0.0000 C.ar    1  UNL1        0.1416
      6 C           8.0622   -0.2500    0.0000 C.ar    1  UNL1        0.0641
      7 C           9.7942   -1.2500    0.0000 C.ar    1  UNL1        0.1383
      8 C           8.0622   -1.2500    0.0000 C.ar    1  UNL1       -0.0439
      9 C           8.9282   -1.7500    0.0000 C.ar    1  UNL1       -0.0179
     10 C          10.7404    0.0547    0.0000 C.ar    1  UNL1       -0.0126
     11 C           7.1962    0.2500    0.0000 C.2     1  UNL1        0.1896
     12 C          11.3241   -0.7500    0.0000 C.ar    1  UNL1        0.0932
     13 C           4.5981   -0.2500    0.0000 C.ar    1  UNL1       -0.0249
     14 C           6.3301   -0.2500    0.0000 C.2     1  UNL1       -0.0137
     15 C           5.4641    0.2500    0.0000 C.2     1  UNL1       -0.0510
     16 C           2.8660   -1.2500    0.0000 C.ar    1  UNL1       -0.0504
     17 C           4.5981   -1.2500    0.0000 C.ar    1  UNL1       -0.0543
     18 C           3.7320    0.2500    0.0000 C.ar    1  UNL1       -0.0543
     19 C           3.7320   -1.7500    0.0000 C.ar    1  UNL1       -0.0583
     20 C           2.8660   -0.2500    0.0000 C.ar    1  UNL1       -0.0583
     21 C           2.0000   -1.7500    0.0000 C.3     1  UNL1       -0.0397
     22 C           9.7942    1.7500    0.0000 C.3     1  UNL1        0.0788
     23 H           7.5252   -1.5600    0.0000 H       1  UNL1        0.0627
     24 H           8.9282   -2.3700    0.0000 H       1  UNL1        0.0655
     25 H          10.9331    0.6441    0.0000 H       1  UNL1        0.0656
     26 H          11.9441   -0.7500    0.0000 H       1  UNL1        0.1030
     27 H           6.3301   -0.8700    0.0000 H       1  UNL1        0.0656
     28 H           5.4641    0.8700    0.0000 H       1  UNL1        0.0625
     29 H           5.1350   -1.5600    0.0000 H       1  UNL1        0.0624
     30 H           3.7320    0.8700    0.0000 H       1  UNL1        0.0624
     31 H           3.7320   -2.3700    0.0000 H       1  UNL1        0.0620
     32 H           2.3291    0.0600    0.0000 H       1  UNL1        0.0620
     33 H           1.6900   -1.2131    0.0000 H       1  UNL1        0.0278
     34 H           1.4631   -2.0600    0.0000 H       1  UNL1        0.0278
     35 H           2.3100   -2.2869    0.0000 H       1  UNL1        0.0278
     36 H          10.1042    1.2131    0.0000 H       1  UNL1        0.0660
     37 H          10.3312    2.0600    0.0000 H       1  UNL1        0.0660
     38 H           9.4842    2.2869    0.0000 H       1  UNL1        0.0660
@<TRIPOS>BOND
     1     1     7   ar
     2     1    12   ar
     3     2     5    1
     4     2    22    1
     5     3    11    2
     6     4     5   ar
     7     4     7   ar
     8     4    10   ar
     9     5     6   ar
    10     6     8   ar
    11     6    11    1
    12     7     9   ar
    13     8     9   ar
    14     8    23    1
    15     9    24    1
    16    10    12   ar
    17    10    25    1
    18    11    14    1
    19    12    26    1
    20    13    15    1
    21    13    17   ar
    22    13    18   ar
    23    14    15    2
    24    14    27    1
    25    15    28    1
    26    16    19   ar
    27    16    20   ar
    28    16    21    1
    29    17    19   ar
    30    17    29    1
    31    18    20   ar
    32    18    30    1
    33    19    31    1
    34    20    32    1
    35    21    33    1
    36    21    34    1
    37    21    35    1
    38    22    36    1
    39    22    37    1
    40    22    38    1
