@<TRIPOS>MOLECULE
IMPHY012466
 28 27 0 0 0
SMALL
GASTEIGER

@<TRIPOS>ATOM
      1 O           2.5369    0.2500    0.0000 O.3     1  UNL1       -0.3947
      2 C           4.2690    0.2500    0.0000 C.3     1  UNL1       -0.0204
      3 C           5.1350    0.7500    0.0000 C.3     1  UNL1       -0.0449
      4 C           6.0010    0.2500    0.0000 C.3     1  UNL1       -0.0342
      5 C           3.4030    0.7500    0.0000 C.3     1  UNL1        0.0468
      6 C           4.2690   -0.7500    0.0000 C.3     1  UNL1       -0.0603
      7 C           6.8671    0.7500    0.0000 C.2     1  UNL1       -0.0853
      8 C           7.7331    0.2500    0.0000 C.2     1  UNL1       -0.0796
      9 C           8.5991    0.7500    0.0000 C.3     1  UNL1       -0.0440
     10 C           7.7331   -0.7500    0.0000 C.3     1  UNL1       -0.0440
     11 H           4.8059   -0.0600    0.0000 H       1  UNL1        0.0320
     12 H           5.5335    1.2250    0.0000 H       1  UNL1        0.0271
     13 H           4.7365    1.2250    0.0000 H       1  UNL1        0.0271
     14 H           5.6025   -0.2249    0.0000 H       1  UNL1        0.0307
     15 H           6.3996   -0.2249    0.0000 H       1  UNL1        0.0307
     16 H           3.8015    1.2250    0.0000 H       1  UNL1        0.0560
     17 H           3.0044    1.2250    0.0000 H       1  UNL1        0.0560
     18 H           3.6490   -0.7500    0.0000 H       1  UNL1        0.0233
     19 H           4.2690   -1.3700    0.0000 H       1  UNL1        0.0233
     20 H           4.8890   -0.7500    0.0000 H       1  UNL1        0.0233
     21 H           6.8671    1.3700    0.0000 H       1  UNL1        0.0571
     22 H           2.0000    0.5600    0.0000 H       1  UNL1        0.2094
     23 H           8.9091    0.2131    0.0000 H       1  UNL1        0.0274
     24 H           9.1360    1.0600    0.0000 H       1  UNL1        0.0274
     25 H           8.2891    1.2869    0.0000 H       1  UNL1        0.0274
     26 H           7.1131   -0.7500    0.0000 H       1  UNL1        0.0274
     27 H           7.7331   -1.3700    0.0000 H       1  UNL1        0.0274
     28 H           8.3531   -0.7500    0.0000 H       1  UNL1        0.0274
@<TRIPOS>BOND
     1     1     5    1
     2     1    22    1
     3     2     3    1
     4     2     5    1
     5     2     6    1
     6     2    11    1
     7     3     4    1
     8     3    12    1
     9     3    13    1
    10     4     7    1
    11     4    14    1
    12     4    15    1
    13     5    16    1
    14     5    17    1
    15     6    18    1
    16     6    19    1
    17     6    20    1
    18     7     8    2
    19     7    21    1
    20     8     9    1
    21     8    10    1
    22     9    23    1
    23     9    24    1
    24     9    25    1
    25    10    26    1
    26    10    27    1
    27    10    28    1
