@<TRIPOS>MOLECULE
IMPHY002515
 49 51 0 0 0
SMALL
GASTEIGER

@<TRIPOS>ATOM
      1 O           6.0682   -0.1754    0.0000 O.2     1  UNL1       -0.4470
      2 O           7.8003    1.8246    0.0000 O.3     1  UNL1       -0.4883
      3 O           4.3198   -1.2100    0.0000 O.3     1  UNL1       -0.4885
      4 O          10.3984    0.3246    0.0000 O.3     1  UNL1       -0.4913
      5 O           8.6663   -2.6754    0.0000 O.3     1  UNL1       -0.4913
      6 O           4.3198    2.8592    0.0000 O.3     1  UNL1       -0.5058
      7 O          10.3984   -1.6754    0.0000 O.3     1  UNL1       -0.4885
      8 O           6.0682    2.8246    0.0000 O.2     1  UNL1       -0.2830
      9 O           2.5381   -0.1995    0.0000 O.3     1  UNL1       -0.5031
     10 C           6.9343    0.3246    0.0000 C.ar    1  UNL1        0.1812
     11 C           5.2022    1.3246    0.0000 C.ar    1  UNL1        0.1128
     12 C           5.2022    0.3246    0.0000 C.ar    1  UNL1        0.1881
     13 C           7.8003   -0.1754    0.0000 C.ar    1  UNL1        0.0282
     14 C           6.9343    1.3246    0.0000 C.ar    1  UNL1        0.2107
     15 C           6.0682    1.8246    0.0000 C.ar    1  UNL1        0.2382
     16 C           4.3083   -0.2101    0.0000 C.ar    1  UNL1        0.2049
     17 C           4.3083    1.8593    0.0000 C.ar    1  UNL1        0.1350
     18 C           7.8003   -1.1754    0.0000 C.ar    1  UNL1       -0.0053
     19 C           8.6663    0.3246    0.0000 C.ar    1  UNL1       -0.0053
     20 C           3.4022    0.3038    0.0000 C.ar    1  UNL1        0.1657
     21 C           9.5323   -0.1754    0.0000 C.ar    1  UNL1        0.1658
     22 C           8.6663   -1.6754    0.0000 C.ar    1  UNL1        0.1658
     23 C           3.4022    1.3454    0.0000 C.ar    1  UNL1        0.0259
     24 C           9.5323   -1.1754    0.0000 C.ar    1  UNL1        0.2035
     25 C           7.8003    2.8246    0.0000 C.3     1  UNL1        0.0791
     26 C           3.4597   -1.7200    0.0000 C.3     1  UNL1        0.0791
     27 C          11.2644   -0.1754    0.0000 C.3     1  UNL1        0.0790
     28 C           7.8003   -3.1754    0.0000 C.3     1  UNL1        0.0790
     29 C          10.3984   -2.6754    0.0000 C.3     1  UNL1        0.0791
     30 H           7.2634   -1.4854    0.0000 H       1  UNL1        0.0662
     31 H           8.6663    0.9446    0.0000 H       1  UNL1        0.0662
     32 H           2.8665    1.6575    0.0000 H       1  UNL1        0.0692
     33 H           3.7865    3.1754    0.0000 H       1  UNL1        0.2922
     34 H           8.4203    2.8246    0.0000 H       1  UNL1        0.0660
     35 H           7.8003    3.4446    0.0000 H       1  UNL1        0.0660
     36 H           7.1803    2.8246    0.0000 H       1  UNL1        0.0660
     37 H           2.0000    0.1084    0.0000 H       1  UNL1        0.2923
     38 H           3.1435   -1.1866    0.0000 H       1  UNL1        0.0660
     39 H           2.9263   -2.0362    0.0000 H       1  UNL1        0.0660
     40 H           3.7758   -2.2533    0.0000 H       1  UNL1        0.0660
     41 H          10.9544   -0.7123    0.0000 H       1  UNL1        0.0660
     42 H          11.8013   -0.4854    0.0000 H       1  UNL1        0.0660
     43 H          11.5744    0.3615    0.0000 H       1  UNL1        0.0660
     44 H           7.4903   -2.6385    0.0000 H       1  UNL1        0.0660
     45 H           7.2634   -3.4854    0.0000 H       1  UNL1        0.0660
     46 H           8.1103   -3.7123    0.0000 H       1  UNL1        0.0660
     47 H           9.7784   -2.6754    0.0000 H       1  UNL1        0.0660
     48 H          10.3984   -3.2954    0.0000 H       1  UNL1        0.0660
     49 H          11.0184   -2.6754    0.0000 H       1  UNL1        0.0660
@<TRIPOS>BOND
     1     1    10   ar
     2     1    12   ar
     3     2    14    1
     4     2    25    1
     5     3    16    1
     6     3    26    1
     7     4    21    1
     8     4    27    1
     9     5    22    1
    10     5    28    1
    11     6    17    1
    12     6    33    1
    13     7    24    1
    14     7    29    1
    15     8    15    2
    16     9    20    1
    17     9    37    1
    18    10    13    1
    19    10    14   ar
    20    11    12   ar
    21    11    15   ar
    22    11    17   ar
    23    12    16   ar
    24    13    18   ar
    25    13    19   ar
    26    14    15   ar
    27    16    20   ar
    28    17    23   ar
    29    18    22   ar
    30    18    30    1
    31    19    21   ar
    32    19    31    1
    33    20    23   ar
    34    21    24   ar
    35    22    24   ar
    36    23    32    1
    37    25    34    1
    38    25    35    1
    39    25    36    1
    40    26    38    1
    41    26    39    1
    42    26    40    1
    43    27    41    1
    44    27    42    1
    45    27    43    1
    46    28    44    1
    47    28    45    1
    48    28    46    1
    49    29    47    1
    50    29    48    1
    51    29    49    1
