@<TRIPOS>MOLECULE
IMPHY012969
 36 37 0 0 0
SMALL
GASTEIGER

@<TRIPOS>ATOM
      1 O           5.1350    0.1550    0.0000 O.3     1  UNL1       -0.3313
      2 O           6.8671    0.1550    0.0000 O.3     1  UNL1       -0.4602
      3 O           5.1350   -2.8450    0.0000 O.3     1  UNL1       -0.3864
      4 O           3.4030   -1.8450    0.0000 O.3     1  UNL1       -0.3865
      5 O           6.8671   -1.8450    0.0000 O.3     1  UNL1       -0.3829
      6 O           2.5369   -0.3450    0.0000 O.3     1  UNL1       -0.3924
      7 O           9.4651    1.6550    0.0000 O.co2   1  UNL1       -0.5445
      8 O           8.5991    0.1550    0.0000 O.co2   1  UNL1       -0.5445
      9 C           5.1350   -1.8450    0.0000 C.3     1  UNL1        0.1152
     10 C           4.2690   -1.3450    0.0000 C.3     1  UNL1        0.1120
     11 C           6.0010   -1.3450    0.0000 C.3     1  UNL1        0.1454
     12 C           4.2690   -0.3450    0.0000 C.3     1  UNL1        0.1140
     13 C           6.0010   -0.3450    0.0000 C.3     1  UNL1        0.2308
     14 C           3.4030    0.1550    0.0000 C.3     1  UNL1        0.0731
     15 C           6.8671    1.1550    0.0000 C.ar    1  UNL1        0.1328
     16 C           7.7331    1.6550    0.0000 C.ar    1  UNL1        0.0391
     17 C           6.0010    1.6550    0.0000 C.ar    1  UNL1       -0.0192
     18 C           7.7331    2.6550    0.0000 C.ar    1  UNL1       -0.0494
     19 C           6.0010    2.6550    0.0000 C.ar    1  UNL1       -0.0583
     20 C           6.8671    3.1550    0.0000 C.ar    1  UNL1       -0.0609
     21 C           8.5991    1.1550    0.0000 C.2     1  UNL1        0.0752
     22 H           4.5981   -2.1550    0.0000 H       1  UNL1        0.0648
     23 H           4.2690   -1.9650    0.0000 H       1  UNL1        0.0647
     24 H           6.0010   -1.9650    0.0000 H       1  UNL1        0.0683
     25 H           4.2690    0.2750    0.0000 H       1  UNL1        0.0647
     26 H           6.0010    0.2750    0.0000 H       1  UNL1        0.1084
     27 H           3.8015    0.6299    0.0000 H       1  UNL1        0.0584
     28 H           3.0044    0.6299    0.0000 H       1  UNL1        0.0584
     29 H           4.5981   -3.1550    0.0000 H       1  UNL1        0.2100
     30 H           3.4030   -2.4650    0.0000 H       1  UNL1        0.2100
     31 H           6.8671   -2.4650    0.0000 H       1  UNL1        0.2102
     32 H           2.0000   -0.0350    0.0000 H       1  UNL1        0.2095
     33 H           5.4641    1.3450    0.0000 H       1  UNL1        0.0654
     34 H           8.2700    2.9650    0.0000 H       1  UNL1        0.0625
     35 H           5.4641    2.9650    0.0000 H       1  UNL1        0.0619
     36 H           6.8671    3.7750    0.0000 H       1  UNL1        0.0618
@<TRIPOS>UNITY_ATOM_ATTR
7 1
charge -1
@<TRIPOS>BOND
     1     1    12    1
     2     1    13    1
     3    13     2    1
     4     2    15    1
     5     9     3    1
     6     3    29    1
     7    10     4    1
     8     4    30    1
     9    11     5    1
    10     5    31    1
    11     6    14    1
    12     6    32    1
    13     7    21   ar
    14     8    21   ar
    15     9    10    1
    16     9    11    1
    17     9    22    1
    18    10    12    1
    19    10    23    1
    20    11    13    1
    21    11    24    1
    22    12    14    1
    23    12    25    1
    24    13    26    1
    25    14    27    1
    26    14    28    1
    27    15    16   ar
    28    15    17   ar
    29    16    18   ar
    30    16    21    1
    31    17    19   ar
    32    17    33    1
    33    18    20   ar
    34    18    34    1
    35    19    20   ar
    36    19    35    1
    37    20    36    1
