@<TRIPOS>MOLECULE
IMPHY008457
 41 45 0 0 0
SMALL
GASTEIGER

@<TRIPOS>ATOM
      1 O           2.6079    0.5996    0.0000 O.3     1  UNL1       -0.4526
      2 O           2.6079    2.2760    0.0000 O.3     1  UNL1       -0.4526
      3 O           8.9752   -2.1604    0.0000 O.3     1  UNL1       -0.5028
      4 O          10.7866   -1.1146    0.0000 O.3     1  UNL1       -0.4914
      5 N           6.2435   -0.6037    0.0000 N.ar    1  UNL1       -0.1986
      6 C           6.2596    0.4378    0.0000 C.ar    1  UNL1        0.2231
      7 C           7.1256    0.9378    0.0000 C.ar    1  UNL1        0.0548
      8 C           5.3935    0.9378    0.0000 C.ar    1  UNL1        0.0576
      9 C           8.0356    0.4309    0.0000 C.ar    1  UNL1        0.0050
     10 C           5.3935    1.9378    0.0000 C.ar    1  UNL1       -0.0079
     11 C           8.0436   -0.6107    0.0000 C.ar    1  UNL1        0.0913
     12 C           7.1415   -1.1315    0.0000 C.ar    1  UNL1        0.1829
     13 C           7.1256    1.9378    0.0000 C.ar    1  UNL1       -0.0471
     14 C           4.4996    0.4031    0.0000 C.ar    1  UNL1       -0.0021
     15 C           6.2596    2.4378    0.0000 C.ar    1  UNL1       -0.0529
     16 C           4.4996    2.4724    0.0000 C.ar    1  UNL1       -0.0082
     17 C           3.5935    0.9170    0.0000 C.ar    1  UNL1        0.1670
     18 C           3.5935    1.9586    0.0000 C.ar    1  UNL1        0.1668
     19 C           8.9624    0.9950    0.0000 C.ar    1  UNL1       -0.0494
     20 C           8.9790   -1.1604    0.0000 C.ar    1  UNL1        0.1721
     21 C           5.3717   -1.0937    0.0000 C.3     1  UNL1        0.1410
     22 C           9.9187   -0.6179    0.0000 C.ar    1  UNL1        0.1621
     23 C           9.9103    0.4671    0.0000 C.ar    1  UNL1       -0.0157
     24 C           2.0000    1.4378    0.0000 C.3     1  UNL1        0.2332
     25 C          11.6507   -0.6112    0.0000 C.3     1  UNL1        0.0790
     26 H           7.1391   -1.7515    0.0000 H       1  UNL1        0.1384
     27 H           7.6625    2.2478    0.0000 H       1  UNL1        0.0626
     28 H           4.5068   -0.2168    0.0000 H       1  UNL1        0.0663
     29 H           6.2596    3.0578    0.0000 H       1  UNL1        0.0624
     30 H           4.5068    3.0924    0.0000 H       1  UNL1        0.0661
     31 H           8.9505    1.6149    0.0000 H       1  UNL1        0.0625
     32 H           5.0680   -0.5532    0.0000 H       1  UNL1        0.0993
     33 H           4.8313   -1.3974    0.0000 H       1  UNL1        0.0993
     34 H           5.6755   -1.6342    0.0000 H       1  UNL1        0.0993
     35 H          10.4436    0.7833    0.0000 H       1  UNL1        0.0655
     36 H           1.5391    1.8525    0.0000 H       1  UNL1        0.1166
     37 H           1.5391    1.0231    0.0000 H       1  UNL1        0.1166
     38 H           9.5109   -2.4724    0.0000 H       1  UNL1        0.2923
     39 H          11.9628   -1.1470    0.0000 H       1  UNL1        0.0660
     40 H          12.1864   -0.2991    0.0000 H       1  UNL1        0.0660
     41 H          11.3386   -0.0755    0.0000 H       1  UNL1        0.0660
@<TRIPOS>UNITY_ATOM_ATTR
5 1
charge 1
@<TRIPOS>BOND
     1     1    17    1
     2     1    24    1
     3     2    18    1
     4     2    24    1
     5     3    20    1
     6     3    38    1
     7     4    22    1
     8     4    25    1
     9     5     6   ar
    10     5    12   ar
    11     5    21    1
    12     6     7   ar
    13     6     8   ar
    14     7     9   ar
    15     7    13   ar
    16     8    10   ar
    17     8    14   ar
    18     9    11   ar
    19     9    19   ar
    20    10    15   ar
    21    10    16   ar
    22    11    12   ar
    23    11    20   ar
    24    12    26    1
    25    13    15   ar
    26    13    27    1
    27    14    17   ar
    28    14    28    1
    29    15    29    1
    30    16    18   ar
    31    16    30    1
    32    17    18   ar
    33    19    23   ar
    34    19    31    1
    35    20    22   ar
    36    21    32    1
    37    21    33    1
    38    21    34    1
    39    22    23   ar
    40    23    35    1
    41    24    36    1
    42    24    37    1
    43    25    39    1
    44    25    40    1
    45    25    41    1
