@<TRIPOS>MOLECULE
IMPHY014495
 26 25 0 0 0
SMALL
GASTEIGER

@<TRIPOS>ATOM
      1 O           5.4641   -1.2500    0.0000 O.3     1  UNL1       -0.3860
      2 O           6.3301    1.2500    0.0000 O.3     1  UNL1       -0.3861
      3 O           4.5981    1.2500    0.0000 O.3     1  UNL1       -0.3783
      4 O           7.1962   -1.2500    0.0000 O.3     1  UNL1       -0.3819
      5 O           2.8660    0.2500    0.0000 O.3     1  UNL1       -0.4661
      6 O           3.7320   -1.2500    0.0000 O.2     1  UNL1       -0.2478
      7 O           8.9282   -0.2500    0.0000 O.2     1  UNL1       -0.2982
      8 C           5.4641   -0.2500    0.0000 C.3     1  UNL1        0.1200
      9 C           6.3301    0.2500    0.0000 C.3     1  UNL1        0.1164
     10 C           4.5981    0.2500    0.0000 C.3     1  UNL1        0.1800
     11 C           7.1962   -0.2500    0.0000 C.3     1  UNL1        0.1382
     12 C           3.7320   -0.2500    0.0000 C.2     1  UNL1        0.3384
     13 C           8.0622    0.2500    0.0000 C.2     1  UNL1        0.1512
     14 C           2.0000   -0.2500    0.0000 C.3     1  UNL1        0.0817
     15 H           6.0010   -0.5600    0.0000 H       1  UNL1        0.0652
     16 H           6.8671    0.5600    0.0000 H       1  UNL1        0.0650
     17 H           5.1350    0.5600    0.0000 H       1  UNL1        0.0738
     18 H           6.6592   -0.5600    0.0000 H       1  UNL1        0.0697
     19 H           4.9272   -1.5600    0.0000 H       1  UNL1        0.2100
     20 H           6.8671    1.5600    0.0000 H       1  UNL1        0.2100
     21 H           8.0622    0.8700    0.0000 H       1  UNL1        0.1055
     22 H           4.0611    1.5600    0.0000 H       1  UNL1        0.2106
     23 H           7.7331   -1.5600    0.0000 H       1  UNL1        0.2105
     24 H           1.6900    0.2869    0.0000 H       1  UNL1        0.0661
     25 H           1.4631   -0.5600    0.0000 H       1  UNL1        0.0661
     26 H           2.3100   -0.7869    0.0000 H       1  UNL1        0.0661
@<TRIPOS>BOND
     1     8     1    1
     2     1    19    1
     3     9     2    1
     4     2    20    1
     5    10     3    1
     6     3    22    1
     7    11     4    1
     8     4    23    1
     9     5    12    1
    10     5    14    1
    11     6    12    2
    12     7    13    2
    13     8     9    1
    14     8    10    1
    15     8    15    1
    16     9    11    1
    17     9    16    1
    18    10    12    1
    19    10    17    1
    20    11    13    1
    21    11    18    1
    22    13    21    1
    23    14    24    1
    24    14    25    1
    25    14    26    1
