@<TRIPOS>MOLECULE
IMPHY016441
 27 26 0 0 0
SMALL
GASTEIGER

@<TRIPOS>ATOM
      1 O           5.4641    0.7500    0.0000 O.3     1  UNL1       -0.4646
      2 O           4.5981   -0.7500    0.0000 O.2     1  UNL1       -0.2509
      3 C           7.1962    0.7500    0.0000 C.3     1  UNL1       -0.0151
      4 C           6.3301    0.2500    0.0000 C.3     1  UNL1        0.0927
      5 C           3.7320    0.7500    0.0000 C.3     1  UNL1        0.0447
      6 C           8.0622    0.2500    0.0000 C.3     1  UNL1       -0.0319
      7 C           2.8660    0.2500    0.0000 C.3     1  UNL1       -0.0458
      8 C           4.5981    0.2500    0.0000 C.2     1  UNL1        0.3071
      9 C           2.0000    0.7500    0.0000 C.3     1  UNL1       -0.0648
     10 C           8.9282    0.7500    0.0000 C.2     1  UNL1       -0.0910
     11 C           9.7942    0.2500    0.0000 C.2     1  UNL1       -0.1026
     12 H           7.5947    1.2250    0.0000 H       1  UNL1        0.0301
     13 H           6.7976    1.2250    0.0000 H       1  UNL1        0.0301
     14 H           5.9316   -0.2249    0.0000 H       1  UNL1        0.0697
     15 H           6.7287   -0.2249    0.0000 H       1  UNL1        0.0697
     16 H           4.1306    1.2250    0.0000 H       1  UNL1        0.0377
     17 H           3.3335    1.2250    0.0000 H       1  UNL1        0.0377
     18 H           7.6636   -0.2249    0.0000 H       1  UNL1        0.0308
     19 H           8.4607   -0.2249    0.0000 H       1  UNL1        0.0308
     20 H           2.4675   -0.2249    0.0000 H       1  UNL1        0.0268
     21 H           3.2646   -0.2249    0.0000 H       1  UNL1        0.0268
     22 H           2.3100    1.2869    0.0000 H       1  UNL1        0.0230
     23 H           1.4631    1.0600    0.0000 H       1  UNL1        0.0230
     24 H           1.6900    0.2131    0.0000 H       1  UNL1        0.0230
     25 H           8.9282    1.3700    0.0000 H       1  UNL1        0.0566
     26 H           9.7942   -0.3700    0.0000 H       1  UNL1        0.0532
     27 H          10.3312    0.5600    0.0000 H       1  UNL1        0.0532
@<TRIPOS>BOND
     1     1     4    1
     2     1     8    1
     3     2     8    2
     4     3     4    1
     5     3     6    1
     6     3    12    1
     7     3    13    1
     8     4    14    1
     9     4    15    1
    10     5     7    1
    11     5     8    1
    12     5    16    1
    13     5    17    1
    14     6    10    1
    15     6    18    1
    16     6    19    1
    17     7     9    1
    18     7    20    1
    19     7    21    1
    20     9    22    1
    21     9    23    1
    22     9    24    1
    23    10    11    2
    24    10    25    1
    25    11    26    1
    26    11    27    1
