@<TRIPOS>MOLECULE
IMPHY016189
 48 48 0 0 0
SMALL
GASTEIGER

@<TRIPOS>ATOM
      1 O           6.8010    3.4445    0.0000 O.3     1  UNL1       -0.3752
      2 O           3.8898    3.4445    0.0000 O.3     1  UNL1       -0.3752
      3 O           8.6160    1.1685    0.0000 O.3     1  UNL1       -0.3752
      4 O           2.0747    1.1685    0.0000 O.3     1  UNL1       -0.3752
      5 O           7.9682   -1.6696    0.0000 O.3     1  UNL1       -0.3742
      6 O           2.7225   -1.6696    0.0000 O.3     1  UNL1       -0.3664
      7 O           5.3454   -2.9328    0.0000 O.3     1  UNL1       -0.4607
      8 O           4.0618   -3.7393    0.0000 O.2     1  UNL1       -0.2482
      9 C           5.8454    3.7393    0.0000 C.3     1  UNL1        0.0711
     10 C           7.6272    2.8812    0.0000 C.3     1  UNL1        0.0711
     11 C           4.8454    3.7393    0.0000 C.3     1  UNL1        0.0711
     12 C           8.2507    2.0994    0.0000 C.3     1  UNL1        0.0711
     13 C           3.0636    2.8812    0.0000 C.3     1  UNL1        0.0711
     14 C           8.6908    0.1713    0.0000 C.3     1  UNL1        0.0711
     15 C           2.4401    2.0994    0.0000 C.3     1  UNL1        0.0711
     16 C           8.4682   -0.8036    0.0000 C.3     1  UNL1        0.0711
     17 C           2.0000    0.1713    0.0000 C.3     1  UNL1        0.0711
     18 C           7.2352   -2.3498    0.0000 C.3     1  UNL1        0.0819
     19 C           2.2225   -0.8036    0.0000 C.3     1  UNL1        0.0717
     20 C           6.3342   -2.7837    0.0000 C.3     1  UNL1        0.1158
     21 C           3.4556   -2.3498    0.0000 C.3     1  UNL1        0.1445
     22 C           4.3565   -2.7837    0.0000 C.2     1  UNL1        0.3332
     23 H           6.2556    4.2042    0.0000 H       1  UNL1        0.0583
     24 H           5.7530    3.1262    0.0000 H       1  UNL1        0.0583
     25 H           8.2280    3.0342    0.0000 H       1  UNL1        0.0583
     26 H           7.2055    2.4267    0.0000 H       1  UNL1        0.0583
     27 H           5.1004    4.3044    0.0000 H       1  UNL1        0.0583
     28 H           4.9378    3.1262    0.0000 H       1  UNL1        0.0583
     29 H           8.8699    2.0685    0.0000 H       1  UNL1        0.0583
     30 H           7.7137    1.7894    0.0000 H       1  UNL1        0.0583
     31 H           2.9559    3.4918    0.0000 H       1  UNL1        0.0583
     32 H           3.4853    2.4267    0.0000 H       1  UNL1        0.0583
     33 H           9.1850   -0.2031    0.0000 H       1  UNL1        0.0583
     34 H           8.0725    0.2176    0.0000 H       1  UNL1        0.0583
     35 H           2.1572    2.6511    0.0000 H       1  UNL1        0.0583
     36 H           2.9770    1.7894    0.0000 H       1  UNL1        0.0583
     37 H           8.8302   -1.3070    0.0000 H       1  UNL1        0.0583
     38 H           7.8911   -0.5771    0.0000 H       1  UNL1        0.0583
     39 H           1.4555    0.4678    0.0000 H       1  UNL1        0.0583
     40 H           2.6183    0.2176    0.0000 H       1  UNL1        0.0583
     41 H           7.2506   -2.9696    0.0000 H       1  UNL1        0.0594
     42 H           6.8859   -1.8376    0.0000 H       1  UNL1        0.0594
     43 H           1.6148   -0.6808    0.0000 H       1  UNL1        0.0583
     44 H           2.7997   -0.5771    0.0000 H       1  UNL1        0.0583
     45 H           6.1663   -3.3805    0.0000 H       1  UNL1        0.0721
     46 H           6.1514   -2.1913    0.0000 H       1  UNL1        0.0721
     47 H           2.8843   -2.5907    0.0000 H       1  UNL1        0.0676
     48 H           3.8048   -1.8376    0.0000 H       1  UNL1        0.0676
@<TRIPOS>BOND
     1     1     9    1
     2     1    10    1
     3     2    11    1
     4     2    13    1
     5     3    12    1
     6     3    14    1
     7     4    15    1
     8     4    17    1
     9     5    16    1
    10     5    18    1
    11     6    19    1
    12     6    21    1
    13     7    20    1
    14     7    22    1
    15     8    22    2
    16     9    11    1
    17     9    23    1
    18     9    24    1
    19    10    12    1
    20    10    25    1
    21    10    26    1
    22    11    27    1
    23    11    28    1
    24    12    29    1
    25    12    30    1
    26    13    15    1
    27    13    31    1
    28    13    32    1
    29    14    16    1
    30    14    33    1
    31    14    34    1
    32    15    35    1
    33    15    36    1
    34    16    37    1
    35    16    38    1
    36    17    19    1
    37    17    39    1
    38    17    40    1
    39    18    20    1
    40    18    41    1
    41    18    42    1
    42    19    43    1
    43    19    44    1
    44    20    45    1
    45    20    46    1
    46    21    22    1
    47    21    47    1
    48    21    48    1
