@<TRIPOS>MOLECULE
IMPHY005100
 122 129 0 0 0
SMALL
GASTEIGER

@<TRIPOS>ATOM
      1 O           8.3757    4.8469    0.0000 O.3     1  UNL1       -0.3678
      2 O          10.3994    6.1356    0.0000 O.3     1  UNL1       -0.3911
      3 O           7.7331   -1.7536    0.0000 O.3     1  UNL1       -0.3449
      4 O           6.0010   -1.7536    0.0000 O.3     1  UNL1       -0.3431
      5 O           7.7331   -3.7536    0.0000 O.3     1  UNL1       -0.3841
      6 O           6.0010   -4.7536    0.0000 O.3     1  UNL1       -0.3401
      7 O           4.2690   -3.7536    0.0000 O.3     1  UNL1       -0.3866
      8 O           4.2690   -4.7536    0.0000 O.3     1  UNL1       -0.3405
      9 O           6.0010   -6.7536    0.0000 O.3     1  UNL1       -0.3841
     10 O           4.2690   -7.7536    0.0000 O.3     1  UNL1       -0.3864
     11 O           2.5369   -6.7536    0.0000 O.3     1  UNL1       -0.3865
     12 O           2.5369   -3.7536    0.0000 O.3     1  UNL1       -0.3924
     13 C           8.6596    4.1422    0.0000 C.3     1  UNL1        0.0091
     14 C           7.7955    4.6456    0.0000 C.3     1  UNL1        0.0970
     15 C           8.6717    3.1007    0.0000 C.3     1  UNL1       -0.0169
     16 C           7.7994    5.6456    0.0000 C.3     1  UNL1        0.0028
     17 C           8.6673    6.1422    0.0000 C.3     1  UNL1        0.0258
     18 C           7.7716    2.5764    0.0000 C.3     1  UNL1       -0.0112
     19 C           7.7590    1.4915    0.0000 C.3     1  UNL1       -0.0218
     20 C           9.5276    4.6389    0.0000 C.3     1  UNL1       -0.0174
     21 C           9.5314    5.6389    0.0000 C.3     1  UNL1        0.0639
     22 C           8.6966    0.9454    0.0000 C.3     1  UNL1       -0.0276
     23 C           9.6216    2.5764    0.0000 C.3     1  UNL1       -0.0462
     24 C           8.7784    5.5382    0.0000 C.3     1  UNL1        0.0572
     25 C           6.8913    6.1559    0.0000 C.3     1  UNL1       -0.0414
     26 C           8.6874    7.1837    0.0000 C.3     1  UNL1       -0.0421
     27 C           6.8836    4.1422    0.0000 C.2     1  UNL1       -0.0554
     28 C           9.6341    1.4915    0.0000 C.3     1  UNL1       -0.0486
     29 C           9.6438    3.9648    0.0000 C.3     1  UNL1       -0.0560
     30 C           6.8715    3.1007    0.0000 C.2     1  UNL1       -0.0811
     31 C           6.8873    7.1976    0.0000 C.3     1  UNL1       -0.0345
     32 C           8.7096   -0.1847    0.0000 C.3     1  UNL1       -0.0052
     33 C           9.6558    3.2781    0.0000 C.3     1  UNL1       -0.0584
     34 C           6.7696    0.9454    0.0000 C.3     1  UNL1       -0.0444
     35 C           7.7914    7.7149    0.0000 C.3     1  UNL1       -0.0472
     36 C           6.8950    1.9948    0.0000 C.3     1  UNL1       -0.0587
     37 C           7.7331   -0.7536    0.0000 C.3     1  UNL1        0.0672
     38 C           6.7565   -0.1847    0.0000 C.3     1  UNL1       -0.0255
     39 C           6.3873    8.0636    0.0000 C.3     1  UNL1       -0.0598
     40 C           5.8873    7.1976    0.0000 C.3     1  UNL1       -0.0598
     41 C           9.7096   -0.1770    0.0000 C.3     1  UNL1       -0.0572
     42 C           9.2163   -1.0469    0.0000 C.3     1  UNL1       -0.0572
     43 C           6.8671   -2.2536    0.0000 C.3     1  UNL1        0.1881
     44 C           6.8671   -3.2536    0.0000 C.3     1  UNL1        0.1345
     45 C           6.0010   -3.7536    0.0000 C.3     1  UNL1        0.1205
     46 C           5.1350   -2.2536    0.0000 C.3     1  UNL1        0.0873
     47 C           5.1350   -3.2536    0.0000 C.3     1  UNL1        0.1098
     48 C           4.2690   -1.7536    0.0000 C.3     1  UNL1       -0.0361
     49 C           5.1350   -5.2536    0.0000 C.3     1  UNL1        0.1884
     50 C           5.1350   -6.2536    0.0000 C.3     1  UNL1        0.1341
     51 C           4.2690   -6.7536    0.0000 C.3     1  UNL1        0.1141
     52 C           3.4030   -5.2536    0.0000 C.3     1  UNL1        0.1130
     53 C           3.4030   -6.2536    0.0000 C.3     1  UNL1        0.1119
     54 C           2.5369   -4.7536    0.0000 C.3     1  UNL1        0.0730
     55 H           7.0616    5.2234    0.0000 H       1  UNL1        0.0339
     56 H           7.0322    2.1571    0.0000 H       1  UNL1        0.0354
     57 H           9.7374    4.0555    0.0000 H       1  UNL1        0.0297
     58 H          10.1386    4.7442    0.0000 H       1  UNL1        0.0297
     59 H          10.0672    5.3268    0.0000 H       1  UNL1        0.0600
     60 H           9.4360    0.5261    0.0000 H       1  UNL1        0.0312
     61 H          10.2336    2.4774    0.0000 H       1  UNL1        0.0271
     62 H           9.8239    3.1625    0.0000 H       1  UNL1        0.0271
     63 H           9.2038    5.0872    0.0000 H       1  UNL1        0.0567
     64 H           9.3314    5.8185    0.0000 H       1  UNL1        0.0567
     65 H           6.2801    6.2597    0.0000 H       1  UNL1        0.0274
     66 H           6.6845    5.5714    0.0000 H       1  UNL1        0.0274
     67 H           9.2961    7.0658    0.0000 H       1  UNL1        0.0272
     68 H           8.9077    7.7632    0.0000 H       1  UNL1        0.0272
     69 H           6.3515    4.4605    0.0000 H       1  UNL1        0.0598
     70 H           9.8499    0.9102    0.0000 H       1  UNL1        0.0268
     71 H          10.2437    1.6046    0.0000 H       1  UNL1        0.0268
     72 H           9.5337    3.3546    0.0000 H       1  UNL1        0.0236
     73 H          10.2539    3.8548    0.0000 H       1  UNL1        0.0236
     74 H           9.7538    4.5750    0.0000 H       1  UNL1        0.0236
     75 H           6.3322    2.7948    0.0000 H       1  UNL1        0.0573
     76 H           9.7658    2.6680    0.0000 H       1  UNL1        0.0235
     77 H          10.2660    3.3882    0.0000 H       1  UNL1        0.0235
     78 H           9.5458    3.8883    0.0000 H       1  UNL1        0.0235
     79 H           6.5673    1.5314    0.0000 H       1  UNL1        0.0272
     80 H           6.1575    0.8463    0.0000 H       1  UNL1        0.0272
     81 H           8.1942    8.1862    0.0000 H       1  UNL1        0.0271
     82 H           7.3959    8.1924    0.0000 H       1  UNL1        0.0271
     83 H           7.2070    2.5306    0.0000 H       1  UNL1        0.0235
     84 H           6.3592    2.3069    0.0000 H       1  UNL1        0.0235
     85 H           6.5829    1.4591    0.0000 H       1  UNL1        0.0235
     86 H           7.1956   -1.0625    0.0000 H       1  UNL1        0.0602
     87 H           6.1469   -0.0716    0.0000 H       1  UNL1        0.0290
     88 H           6.5407   -0.7660    0.0000 H       1  UNL1        0.0290
     89 H          10.9351    5.8235    0.0000 H       1  UNL1        0.2098
     90 H           6.9243    8.3736    0.0000 H       1  UNL1        0.0235
     91 H           6.0773    8.6005    0.0000 H       1  UNL1        0.0235
     92 H           5.8504    7.7536    0.0000 H       1  UNL1        0.0235
     93 H           5.8873    7.8176    0.0000 H       1  UNL1        0.0235
     94 H           5.2673    7.1976    0.0000 H       1  UNL1        0.0235
     95 H           5.8873    6.5776    0.0000 H       1  UNL1        0.0235
     96 H           9.7144   -0.7970    0.0000 H       1  UNL1        0.0236
     97 H          10.3296   -0.1722    0.0000 H       1  UNL1        0.0236
     98 H           9.7048    0.4430    0.0000 H       1  UNL1        0.0236
     99 H           8.6818   -1.3610    0.0000 H       1  UNL1        0.0236
    100 H           9.5304   -1.5814    0.0000 H       1  UNL1        0.0236
    101 H           9.7508   -0.7327    0.0000 H       1  UNL1        0.0236
    102 H           7.4040   -2.5636    0.0000 H       1  UNL1        0.0937
    103 H           6.8671   -3.8736    0.0000 H       1  UNL1        0.0671
    104 H           5.4641   -4.0636    0.0000 H       1  UNL1        0.0651
    105 H           5.1350   -1.6336    0.0000 H       1  UNL1        0.0621
    106 H           4.5981   -2.9436    0.0000 H       1  UNL1        0.0646
    107 H           7.7331   -4.3736    0.0000 H       1  UNL1        0.2101
    108 H           4.5790   -1.2166    0.0000 H       1  UNL1        0.0255
    109 H           3.7320   -1.4436    0.0000 H       1  UNL1        0.0255
    110 H           3.9590   -2.2905    0.0000 H       1  UNL1        0.0255
    111 H           3.7320   -3.4436    0.0000 H       1  UNL1        0.2100
    112 H           5.1350   -4.6336    0.0000 H       1  UNL1        0.0938
    113 H           5.1350   -6.8736    0.0000 H       1  UNL1        0.0671
    114 H           3.7320   -7.0636    0.0000 H       1  UNL1        0.0648
    115 H           3.4030   -4.6336    0.0000 H       1  UNL1        0.0647
    116 H           2.8660   -5.9436    0.0000 H       1  UNL1        0.0647
    117 H           6.0010   -7.3736    0.0000 H       1  UNL1        0.2101
    118 H           1.9264   -4.6459    0.0000 H       1  UNL1        0.0584
    119 H           2.3249   -5.3362    0.0000 H       1  UNL1        0.0584
    120 H           3.7320   -8.0636    0.0000 H       1  UNL1        0.2100
    121 H           2.0000   -6.4436    0.0000 H       1  UNL1        0.2100
    122 H           2.0000   -3.4436    0.0000 H       1  UNL1        0.2095
@<TRIPOS>BOND
     1     1    14    1
     2     1    24    1
     3    21     2    1
     4     2    89    1
     5    37     3    1
     6    43     3    1
     7     4    43    1
     8     4    46    1
     9    44     5    1
    10     5   107    1
    11    45     6    1
    12    49     6    1
    13    47     7    1
    14     7   111    1
    15     8    49    1
    16     8    52    1
    17    50     9    1
    18     9   117    1
    19    51    10    1
    20    10   120    1
    21    53    11    1
    22    11   121    1
    23    12    54    1
    24    12   122    1
    25    13    14    1
    26    13    15    1
    27    13    20    1
    28    13    29    1
    29    14    16    1
    30    14    27    1
    31    15    18    1
    32    15    23    1
    33    15    33    1
    34    16    17    1
    35    16    25    1
    36    16    55    1
    37    17    21    1
    38    17    24    1
    39    17    26    1
    40    18    19    1
    41    18    30    1
    42    18    56    1
    43    19    22    1
    44    19    34    1
    45    19    36    1
    46    20    21    1
    47    20    57    1
    48    20    58    1
    49    21    59    1
    50    22    28    1
    51    22    32    1
    52    22    60    1
    53    23    28    1
    54    23    61    1
    55    23    62    1
    56    24    63    1
    57    24    64    1
    58    25    31    1
    59    25    65    1
    60    25    66    1
    61    26    35    1
    62    26    67    1
    63    26    68    1
    64    27    30    2
    65    27    69    1
    66    28    70    1
    67    28    71    1
    68    29    72    1
    69    29    73    1
    70    29    74    1
    71    30    75    1
    72    31    35    1
    73    31    39    1
    74    31    40    1
    75    32    37    1
    76    32    41    1
    77    32    42    1
    78    33    76    1
    79    33    77    1
    80    33    78    1
    81    34    38    1
    82    34    79    1
    83    34    80    1
    84    35    81    1
    85    35    82    1
    86    36    83    1
    87    36    84    1
    88    36    85    1
    89    37    38    1
    90    37    86    1
    91    38    87    1
    92    38    88    1
    93    39    90    1
    94    39    91    1
    95    39    92    1
    96    40    93    1
    97    40    94    1
    98    40    95    1
    99    41    96    1
   100    41    97    1
   101    41    98    1
   102    42    99    1
   103    42   100    1
   104    42   101    1
   105    43    44    1
   106    43   102    1
   107    44    45    1
   108    44   103    1
   109    45    47    1
   110    45   104    1
   111    46    47    1
   112    46    48    1
   113    46   105    1
   114    47   106    1
   115    48   108    1
   116    48   109    1
   117    48   110    1
   118    49    50    1
   119    49   112    1
   120    50    51    1
   121    50   113    1
   122    51    53    1
   123    51   114    1
   124    52    53    1
   125    52    54    1
   126    52   115    1
   127    53   116    1
   128    54   118    1
   129    54   119    1
