@<TRIPOS>MOLECULE
IMPHY013580
 59 63 0 0 0
SMALL
GASTEIGER

@<TRIPOS>ATOM
      1 O           7.9288   -2.0254    0.0000 O.3     1  UNL1       -0.3871
      2 O           2.5357   -3.0778    0.0000 O.3     1  UNL1       -0.3918
      3 O           9.1885    2.8479    0.0000 O.3     1  UNL1       -0.4568
      4 O          10.9491    3.1236    0.0000 O.2     1  UNL1       -0.2456
      5 C           6.1968   -1.0254    0.0000 C.3     1  UNL1       -0.0299
      6 C           7.0628   -1.5254    0.0000 C.3     1  UNL1       -0.0077
      7 C           5.2868   -1.5323    0.0000 C.3     1  UNL1       -0.0259
      8 C           7.9288   -1.0254    0.0000 C.3     1  UNL1        0.0818
      9 C           7.9288   -0.0254    0.0000 C.3     1  UNL1        0.0223
     10 C           5.2787   -2.5739    0.0000 C.3     1  UNL1       -0.0330
     11 C           6.1968   -0.0254    0.0000 C.3     1  UNL1       -0.0485
     12 C           7.0789   -2.5669    0.0000 C.3     1  UNL1       -0.0470
     13 C           7.0628    0.4746    0.0000 C.3     1  UNL1       -0.0407
     14 C           6.1808   -3.0947    0.0000 C.3     1  UNL1       -0.0493
     15 C           4.3599   -0.9682    0.0000 C.3     1  UNL1       -0.0448
     16 C           8.8750   -1.3302    0.0000 C.3     1  UNL1       -0.0041
     17 C           4.3433   -3.1236    0.0000 C.3     1  UNL1       -0.0235
     18 C           8.8750    0.2793    0.0000 C.2     1  UNL1       -0.0359
     19 C           5.2945   -0.5323    0.0000 C.3     1  UNL1       -0.0590
     20 C           3.4120   -1.4961    0.0000 C.3     1  UNL1       -0.0263
     21 C           3.4037   -2.5811    0.0000 C.3     1  UNL1        0.0555
     22 C           7.9288    0.9746    0.0000 C.3     1  UNL1       -0.0529
     23 C           9.4586   -0.5254    0.0000 C.2     1  UNL1       -0.0771
     24 C           9.1857    1.2298    0.0000 C.2     1  UNL1       -0.0001
     25 C           8.5993    2.0399    0.0000 C.3     1  UNL1        0.1183
     26 C          10.1373    1.5372    0.0000 C.2     1  UNL1        0.0292
     27 C          10.1390    2.5372    0.0000 C.2     1  UNL1        0.3326
     28 H           6.9329   -0.6004    0.0000 H       1  UNL1        0.0310
     29 H           7.8022   -1.9447    0.0000 H       1  UNL1        0.0332
     30 H           5.2820   -3.4239    0.0000 H       1  UNL1        0.0307
     31 H           5.9847    0.5572    0.0000 H       1  UNL1        0.0268
     32 H           5.5862   -0.1331    0.0000 H       1  UNL1        0.0268
     33 H           7.2969   -3.1473    0.0000 H       1  UNL1        0.0269
     34 H           7.6880   -2.4514    0.0000 H       1  UNL1        0.0269
     35 H           7.4613    0.9495    0.0000 H       1  UNL1        0.0275
     36 H           6.6643    0.9495    0.0000 H       1  UNL1        0.0275
     37 H           5.7835   -3.5706    0.0000 H       1  UNL1        0.0268
     38 H           6.5818   -3.5676    0.0000 H       1  UNL1        0.0268
     39 H           4.7681   -0.5015    0.0000 H       1  UNL1        0.0271
     40 H           3.9700   -0.4861    0.0000 H       1  UNL1        0.0271
     41 H           8.6240   -1.8971    0.0000 H       1  UNL1        0.0336
     42 H           9.4124   -1.6394    0.0000 H       1  UNL1        0.0336
     43 H           3.9460   -3.5996    0.0000 H       1  UNL1        0.0293
     44 H           4.7443   -3.5965    0.0000 H       1  UNL1        0.0293
     45 H           5.9145   -0.5371    0.0000 H       1  UNL1        0.0235
     46 H           5.2993    0.0877    0.0000 H       1  UNL1        0.0235
     47 H           4.6745   -0.5275    0.0000 H       1  UNL1        0.0235
     48 H           3.2075   -0.9108    0.0000 H       1  UNL1        0.0290
     49 H           2.8004   -1.5975    0.0000 H       1  UNL1        0.0290
     50 H           2.8686   -2.2680    0.0000 H       1  UNL1        0.0593
     51 H           8.5488    0.9746    0.0000 H       1  UNL1        0.0239
     52 H           7.9288    1.5946    0.0000 H       1  UNL1        0.0239
     53 H           7.3088    0.9746    0.0000 H       1  UNL1        0.0239
     54 H          10.0786   -0.5254    0.0000 H       1  UNL1        0.0576
     55 H           8.4658   -2.3354    0.0000 H       1  UNL1        0.2102
     56 H           2.0000   -2.7657    0.0000 H       1  UNL1        0.2098
     57 H           8.1393    2.4555    0.0000 H       1  UNL1        0.0749
     58 H           8.1378    1.6258    0.0000 H       1  UNL1        0.0749
     59 H          10.6383    1.1719    0.0000 H       1  UNL1        0.0693
@<TRIPOS>BOND
     1     8     1    1
     2     1    55    1
     3    21     2    1
     4     2    56    1
     5     3    25    1
     6     3    27    1
     7     4    27    2
     8     5     6    1
     9     5     7    1
    10     5    11    1
    11     5    28    1
    12     6     8    1
    13     6    12    1
    14     6    29    1
    15     7    10    1
    16     7    15    1
    17     7    19    1
    18     8     9    1
    19     8    16    1
    20     9    13    1
    21     9    18    1
    22     9    22    1
    23    10    14    1
    24    10    17    1
    25    10    30    1
    26    11    13    1
    27    11    31    1
    28    11    32    1
    29    12    14    1
    30    12    33    1
    31    12    34    1
    32    13    35    1
    33    13    36    1
    34    14    37    1
    35    14    38    1
    36    15    20    1
    37    15    39    1
    38    15    40    1
    39    16    23    1
    40    16    41    1
    41    16    42    1
    42    17    21    1
    43    17    43    1
    44    17    44    1
    45    18    23    2
    46    18    24    1
    47    19    45    1
    48    19    46    1
    49    19    47    1
    50    20    21    1
    51    20    48    1
    52    20    49    1
    53    21    50    1
    54    22    51    1
    55    22    52    1
    56    22    53    1
    57    23    54    1
    58    24    25    1
    59    24    26    2
    60    25    57    1
    61    25    58    1
    62    26    27    1
    63    26    59    1
