@<TRIPOS>MOLECULE
IMPHY008205
 24 24 0 0 0
SMALL
GASTEIGER

@<TRIPOS>ATOM
      1 O           2.0000    1.7500    0.0000 O.3     1  UNL1       -0.3729
      2 O           3.7320    2.7500    0.0000 O.3     1  UNL1       -0.3921
      3 O           2.8660   -2.7500    0.0000 O.3     1  UNL1       -0.5068
      4 C           2.8660    1.2500    0.0000 C.3     1  UNL1        0.1062
      5 C           2.8660    0.2500    0.0000 C.ar    1  UNL1       -0.0165
      6 C           3.7320    1.7500    0.0000 C.3     1  UNL1        0.0745
      7 C           2.0000   -0.2500    0.0000 C.ar    1  UNL1       -0.0526
      8 C           3.7320   -0.2500    0.0000 C.ar    1  UNL1       -0.0526
      9 C           2.0000   -1.2500    0.0000 C.ar    1  UNL1       -0.0198
     10 C           3.7320   -1.2500    0.0000 C.ar    1  UNL1       -0.0198
     11 C           2.8660   -1.7500    0.0000 C.ar    1  UNL1        0.1169
     12 C           2.0000    2.7500    0.0000 C.3     1  UNL1        0.0373
     13 H           2.8660    1.8700    0.0000 H       1  UNL1        0.0669
     14 H           3.9441    1.1674    0.0000 H       1  UNL1        0.0586
     15 H           4.3426    1.8577    0.0000 H       1  UNL1        0.0586
     16 H           1.4631    0.0600    0.0000 H       1  UNL1        0.0622
     17 H           4.2690    0.0600    0.0000 H       1  UNL1        0.0622
     18 H           1.4631   -1.5600    0.0000 H       1  UNL1        0.0654
     19 H           4.2690   -1.5600    0.0000 H       1  UNL1        0.0654
     20 H           2.6200    2.7500    0.0000 H       1  UNL1        0.0524
     21 H           2.0000    3.3700    0.0000 H       1  UNL1        0.0524
     22 H           1.3800    2.7500    0.0000 H       1  UNL1        0.0524
     23 H           4.2690    3.0600    0.0000 H       1  UNL1        0.2095
     24 H           2.3291   -3.0600    0.0000 H       1  UNL1        0.2921
@<TRIPOS>BOND
     1     4     1    1
     2     1    12    1
     3     2     6    1
     4     2    23    1
     5     3    11    1
     6     3    24    1
     7     4     5    1
     8     4     6    1
     9     4    13    1
    10     5     7   ar
    11     5     8   ar
    12     6    14    1
    13     6    15    1
    14     7     9   ar
    15     7    16    1
    16     8    10   ar
    17     8    17    1
    18     9    11   ar
    19     9    18    1
    20    10    11   ar
    21    10    19    1
    22    12    20    1
    23    12    21    1
    24    12    22    1
