@<TRIPOS>MOLECULE
IMPHY010356
 77 81 0 0 0
SMALL
GASTEIGER

@<TRIPOS>ATOM
      1 O          11.3900    1.4741    0.0000 O.3     1  UNL1       -0.3877
      2 O          13.6121   -1.9960    0.0000 O.3     1  UNL1       -0.3918
      3 O           6.0010    2.5472    0.0000 O.3     1  UNL1       -0.3477
      4 O           4.2690    2.5472    0.0000 O.3     1  UNL1       -0.3456
      5 O           4.2690   -0.4528    0.0000 O.3     1  UNL1       -0.3890
      6 O           2.5369    0.5472    0.0000 O.3     1  UNL1       -0.3867
      7 C          11.3823   -0.5259    0.0000 C.3     1  UNL1        0.0022
      8 C          11.3862    0.4741    0.0000 C.3     1  UNL1        0.0751
      9 C          10.5221    0.9774    0.0000 C.3     1  UNL1       -0.0046
     10 C           9.6541    0.4808    0.0000 C.3     1  UNL1       -0.0262
     11 C          12.3274   -0.8343    0.0000 C.3     1  UNL1       -0.0071
     12 C           8.7461    0.9911    0.0000 C.3     1  UNL1       -0.0077
     13 C          10.5144   -1.0226    0.0000 C.3     1  UNL1       -0.0444
     14 C          12.3336    0.7752    0.0000 C.3     1  UNL1       -0.0228
     15 C           9.6503   -0.5192    0.0000 C.3     1  UNL1       -0.0485
     16 C          12.9141   -0.0318    0.0000 C.3     1  UNL1       -0.0447
     17 C          10.5422    2.0188    0.0000 C.3     1  UNL1       -0.0287
     18 C          11.3785   -1.5259    0.0000 C.3     1  UNL1       -0.0566
     19 C           8.7421    2.0327    0.0000 C.2     1  UNL1       -0.0648
     20 C           7.8171    0.4306    0.0000 C.3     1  UNL1       -0.0413
     21 C          12.6344   -1.7860    0.0000 C.3     1  UNL1        0.0558
     22 C           9.6462    2.5501    0.0000 C.2     1  UNL1       -0.0838
     23 C           8.7500   -0.0089    0.0000 C.3     1  UNL1       -0.0556
     24 C           7.8088    2.5860    0.0000 C.3     1  UNL1       -0.0047
     25 C           6.8712    0.9622    0.0000 C.3     1  UNL1       -0.0254
     26 C           6.8671    2.0472    0.0000 C.3     1  UNL1        0.0654
     27 C          11.9636   -2.5277    0.0000 C.3     1  UNL1       -0.0387
     28 C           5.1350    2.0472    0.0000 C.3     1  UNL1        0.1624
     29 C           5.1350    1.0472    0.0000 C.3     1  UNL1        0.0270
     30 C           4.2690    0.5472    0.0000 C.3     1  UNL1        0.0881
     31 C           3.4030    2.0472    0.0000 C.3     1  UNL1        0.0871
     32 C           3.4030    1.0472    0.0000 C.3     1  UNL1        0.1070
     33 C           2.5369    2.5472    0.0000 C.3     1  UNL1       -0.0361
     34 H          11.2631    1.3939    0.0000 H       1  UNL1        0.0335
     35 H          10.3886    0.0529    0.0000 H       1  UNL1        0.0313
     36 H          13.1665   -0.9694    0.0000 H       1  UNL1        0.0332
     37 H          10.1140   -1.4960    0.0000 H       1  UNL1        0.0272
     38 H          10.9111   -1.4990    0.0000 H       1  UNL1        0.0272
     39 H          12.8721    1.0823    0.0000 H       1  UNL1        0.0293
     40 H          12.0847    1.3430    0.0000 H       1  UNL1        0.0293
     41 H           9.0401   -0.4092    0.0000 H       1  UNL1        0.0268
     42 H           9.4360   -1.1010    0.0000 H       1  UNL1        0.0268
     43 H          13.3733   -0.4483    0.0000 H       1  UNL1        0.0270
     44 H          13.3765    0.3811    0.0000 H       1  UNL1        0.0270
     45 H          11.1509    1.9010    0.0000 H       1  UNL1        0.0311
     46 H          10.7624    2.5984    0.0000 H       1  UNL1        0.0311
     47 H          10.7585   -1.5235    0.0000 H       1  UNL1        0.0236
     48 H          11.3761   -2.1459    0.0000 H       1  UNL1        0.0236
     49 H          11.9985   -1.5283    0.0000 H       1  UNL1        0.0236
     50 H           7.4253   -0.0499    0.0000 H       1  UNL1        0.0274
     51 H           8.2235   -0.0376    0.0000 H       1  UNL1        0.0274
     52 H          12.8247   -2.3761    0.0000 H       1  UNL1        0.0593
     53 H           9.6509    3.1700    0.0000 H       1  UNL1        0.0572
     54 H          11.9282    1.7820    0.0000 H       1  UNL1        0.2102
     55 H           8.1299   -0.0113    0.0000 H       1  UNL1        0.0238
     56 H           8.7523   -0.6289    0.0000 H       1  UNL1        0.0238
     57 H           9.3699   -0.0065    0.0000 H       1  UNL1        0.0238
     58 H           8.2116    3.0574    0.0000 H       1  UNL1        0.0335
     59 H           7.4133    3.0636    0.0000 H       1  UNL1        0.0335
     60 H           6.2600    1.0659    0.0000 H       1  UNL1        0.0290
     61 H           6.6644    0.3777    0.0000 H       1  UNL1        0.0290
     62 H           6.8683    2.6672    0.0000 H       1  UNL1        0.0600
     63 H          11.5038   -2.1119    0.0000 H       1  UNL1        0.0255
     64 H          11.5478   -2.9876    0.0000 H       1  UNL1        0.0255
     65 H          12.4235   -2.9436    0.0000 H       1  UNL1        0.0255
     66 H          13.8024   -2.5860    0.0000 H       1  UNL1        0.2098
     67 H           5.1350    2.6672    0.0000 H       1  UNL1        0.0910
     68 H           5.3471    0.4646    0.0000 H       1  UNL1        0.0340
     69 H           5.7456    1.1548    0.0000 H       1  UNL1        0.0340
     70 H           4.8059    0.2372    0.0000 H       1  UNL1        0.0621
     71 H           3.4030    2.6672    0.0000 H       1  UNL1        0.0621
     72 H           3.4030    0.4272    0.0000 H       1  UNL1        0.0645
     73 H           2.8469    3.0841    0.0000 H       1  UNL1        0.0255
     74 H           2.0000    2.8572    0.0000 H       1  UNL1        0.0255
     75 H           2.2269    2.0102    0.0000 H       1  UNL1        0.0255
     76 H           3.7320   -0.7628    0.0000 H       1  UNL1        0.2099
     77 H           2.0000    0.8572    0.0000 H       1  UNL1        0.2100
@<TRIPOS>BOND
     1     8     1    1
     2     1    54    1
     3    21     2    1
     4     2    66    1
     5    26     3    1
     6    28     3    1
     7     4    28    1
     8     4    31    1
     9    30     5    1
    10     5    76    1
    11    32     6    1
    12     6    77    1
    13     7     8    1
    14     7    11    1
    15     7    13    1
    16     7    18    1
    17     8     9    1
    18     8    14    1
    19     9    10    1
    20     9    17    1
    21     9    34    1
    22    10    12    1
    23    10    15    1
    24    10    35    1
    25    11    16    1
    26    11    21    1
    27    11    36    1
    28    12    19    1
    29    12    20    1
    30    12    23    1
    31    13    15    1
    32    13    37    1
    33    13    38    1
    34    14    16    1
    35    14    39    1
    36    14    40    1
    37    15    41    1
    38    15    42    1
    39    16    43    1
    40    16    44    1
    41    17    22    1
    42    17    45    1
    43    17    46    1
    44    18    47    1
    45    18    48    1
    46    18    49    1
    47    19    22    2
    48    19    24    1
    49    20    25    1
    50    20    50    1
    51    20    51    1
    52    21    27    1
    53    21    52    1
    54    22    53    1
    55    23    55    1
    56    23    56    1
    57    23    57    1
    58    24    26    1
    59    24    58    1
    60    24    59    1
    61    25    26    1
    62    25    60    1
    63    25    61    1
    64    26    62    1
    65    27    63    1
    66    27    64    1
    67    27    65    1
    68    28    29    1
    69    28    67    1
    70    29    30    1
    71    29    68    1
    72    29    69    1
    73    30    32    1
    74    30    70    1
    75    31    32    1
    76    31    33    1
    77    31    71    1
    78    32    72    1
    79    33    73    1
    80    33    74    1
    81    33    75    1
