@<TRIPOS>MOLECULE
IMPHY013704
 136 143 0 0 0
SMALL
GASTEIGER

@<TRIPOS>ATOM
      1 O           6.8671   -5.7745    0.0000 O.3     1  UNL1       -0.3449
      2 O           9.6611    1.3040    0.0000 O.3     1  UNL1       -0.3906
      3 O           9.5042    2.0150    0.0000 O.3     1  UNL1       -0.4306
      4 O           8.6209    3.5049    0.0000 O.2     1  UNL1       -0.2500
      5 O           5.1350   -5.7745    0.0000 O.3     1  UNL1       -0.3315
      6 O          11.2361    2.0351    0.0000 O.3     1  UNL1       -0.3360
      7 O           6.8671   -7.7745    0.0000 O.3     1  UNL1       -0.3841
      8 O           5.1350   -8.7745    0.0000 O.3     1  UNL1       -0.3864
      9 O           9.4810    4.0149    0.0000 O.3     1  UNL1       -0.4492
     10 O           3.4030   -7.7745    0.0000 O.3     1  UNL1       -0.3860
     11 O          11.2014    5.0349    0.0000 O.3     1  UNL1       -0.3853
     12 O          12.9449    4.0550    0.0000 O.3     1  UNL1       -0.3868
     13 O           2.5369   -6.2745    0.0000 O.3     1  UNL1       -0.4788
     14 O           3.4030   -4.7745    0.0000 O.2     1  UNL1       -0.2480
     15 O          10.3297    5.5248    0.0000 O.2     1  UNL1       -0.2456
     16 O           5.0992    8.4645    0.0000 O.3     1  UNL1       -0.5068
     17 C           7.7681   -1.0743    0.0000 C.3     1  UNL1       -0.0193
     18 C           6.9040   -1.5776    0.0000 C.3     1  UNL1       -0.0257
     19 C           6.8920   -2.6192    0.0000 C.3     1  UNL1       -0.0250
     20 C           7.7643   -0.0743    0.0000 C.3     1  UNL1       -0.0028
     21 C           7.7920   -3.1435    0.0000 C.3     1  UNL1       -0.0278
     22 C           8.6801   -1.5776    0.0000 C.3     1  UNL1       -0.0463
     23 C           8.6921   -2.6192    0.0000 C.3     1  UNL1       -0.0486
     24 C           6.8963    0.4224    0.0000 C.2     1  UNL1       -0.0627
     25 C           7.8046   -4.2284    0.0000 C.3     1  UNL1       -0.0052
     26 C           6.8762    1.4638    0.0000 C.3     1  UNL1       -0.0007
     27 C           6.0361   -1.0810    0.0000 C.3     1  UNL1       -0.0306
     28 C           5.9421   -3.1435    0.0000 C.3     1  UNL1       -0.0447
     29 C           8.6723    0.4361    0.0000 C.3     1  UNL1       -0.0162
     30 C           7.7722    1.9950    0.0000 C.3     1  UNL1        0.1000
     31 C           8.6763    1.4777    0.0000 C.3     1  UNL1        0.0723
     32 C           8.7522   -0.8968    0.0000 C.3     1  UNL1       -0.0585
     33 C           6.8671   -4.7745    0.0000 C.3     1  UNL1        0.0672
     34 C           6.0322   -0.0810    0.0000 C.2     1  UNL1       -0.0836
     35 C           6.0279   -2.1158    0.0000 C.3     1  UNL1       -0.0590
     36 C           5.9295   -4.2284    0.0000 C.3     1  UNL1       -0.0255
     37 C           8.7497   -0.2441    0.0000 C.3     1  UNL1       -0.0552
     38 C           5.9223    1.9808    0.0000 C.3     1  UNL1       -0.0402
     39 C           7.7764    3.0800    0.0000 C.3     1  UNL1       -0.0338
     40 C           5.9014    3.0656    0.0000 C.3     1  UNL1       -0.0343
     41 C           8.8046   -4.2207    0.0000 C.3     1  UNL1       -0.0572
     42 C           8.3113   -5.0905    0.0000 C.3     1  UNL1       -0.0572
     43 C           6.8347    3.6189    0.0000 C.3     1  UNL1       -0.0467
     44 C           8.6324    2.5050    0.0000 C.2     1  UNL1        0.3187
     45 C           5.3881    3.9238    0.0000 C.3     1  UNL1       -0.0598
     46 C           4.9015    3.0501    0.0000 C.3     1  UNL1       -0.0598
     47 C           6.0010   -6.2745    0.0000 C.3     1  UNL1        0.1888
     48 C           6.0010   -7.2745    0.0000 C.3     1  UNL1        0.1341
     49 C          10.3644    2.5250    0.0000 C.3     1  UNL1        0.2447
     50 C           5.1350   -7.7745    0.0000 C.3     1  UNL1        0.1145
     51 C           4.2690   -6.2745    0.0000 C.3     1  UNL1        0.1859
     52 C           4.2690   -7.2745    0.0000 C.3     1  UNL1        0.1201
     53 C          10.3528    3.5250    0.0000 C.3     1  UNL1        0.1933
     54 C          11.2130    4.0349    0.0000 C.3     1  UNL1        0.1259
     55 C          12.0963    2.5451    0.0000 C.3     1  UNL1        0.0803
     56 C          12.0847    3.5450    0.0000 C.3     1  UNL1        0.1081
     57 C           3.4030   -5.7745    0.0000 C.2     1  UNL1        0.3367
     58 C           9.4695    5.0148    0.0000 C.2     1  UNL1        0.3325
     59 C           8.5977    5.5048    0.0000 C.2     1  UNL1        0.0231
     60 C           8.5862    6.5047    0.0000 C.2     1  UNL1       -0.0478
     61 C           7.7144    6.9947    0.0000 C.ar    1  UNL1       -0.0246
     62 C           7.7029    7.9946    0.0000 C.ar    1  UNL1       -0.0511
     63 C           6.8542    6.4847    0.0000 C.ar    1  UNL1       -0.0511
     64 C           6.8311    8.4846    0.0000 C.ar    1  UNL1       -0.0196
     65 C           5.9825    6.9747    0.0000 C.ar    1  UNL1       -0.0196
     66 C           5.9709    7.9746    0.0000 C.ar    1  UNL1        0.1169
     67 H           7.4398   -1.8897    0.0000 H       1  UNL1        0.0315
     68 H           8.3314   -3.4493    0.0000 H       1  UNL1        0.0312
     69 H           9.2921   -1.6766    0.0000 H       1  UNL1        0.0271
     70 H           8.8824   -0.9915    0.0000 H       1  UNL1        0.0271
     71 H           8.9079   -3.2004    0.0000 H       1  UNL1        0.0268
     72 H           9.3017   -2.5060    0.0000 H       1  UNL1        0.0268
     73 H           6.1502    1.0219    0.0000 H       1  UNL1        0.0357
     74 H           5.4251   -0.9756    0.0000 H       1  UNL1        0.0310
     75 H           5.8263   -1.6644    0.0000 H       1  UNL1        0.0310
     76 H           5.7398   -2.5574    0.0000 H       1  UNL1        0.0271
     77 H           5.3300   -3.2425    0.0000 H       1  UNL1        0.0271
     78 H           8.8791   -0.1484    0.0000 H       1  UNL1        0.0299
     79 H           9.2836    0.5398    0.0000 H       1  UNL1        0.0299
     80 H           8.8872    2.0607    0.0000 H       1  UNL1        0.0605
     81 H           8.8623   -1.5070    0.0000 H       1  UNL1        0.0235
     82 H           9.3624   -0.7868    0.0000 H       1  UNL1        0.0235
     83 H           8.6422   -0.2867    0.0000 H       1  UNL1        0.0235
     84 H           7.4046   -5.0835    0.0000 H       1  UNL1        0.0602
     85 H           5.4941    0.2270    0.0000 H       1  UNL1        0.0572
     86 H           6.3400   -1.5801    0.0000 H       1  UNL1        0.0235
     87 H           5.4922   -1.8038    0.0000 H       1  UNL1        0.0235
     88 H           5.7158   -2.6516    0.0000 H       1  UNL1        0.0235
     89 H           5.3199   -4.1152    0.0000 H       1  UNL1        0.0290
     90 H           5.7137   -4.8096    0.0000 H       1  UNL1        0.0290
     91 H           8.6444   -0.8551    0.0000 H       1  UNL1        0.0238
     92 H           9.3607   -0.3494    0.0000 H       1  UNL1        0.0238
     93 H           8.8550    0.3669    0.0000 H       1  UNL1        0.0238
     94 H           5.3095    2.0751    0.0000 H       1  UNL1        0.0276
     95 H           5.7246    1.3932    0.0000 H       1  UNL1        0.0276
     96 H           8.3869    2.9716    0.0000 H       1  UNL1        0.0277
     97 H           7.9877    3.6629    0.0000 H       1  UNL1        0.0277
     98 H           8.8094   -4.8407    0.0000 H       1  UNL1        0.0236
     99 H           9.4246   -4.2159    0.0000 H       1  UNL1        0.0236
    100 H           8.7998   -3.6007    0.0000 H       1  UNL1        0.0236
    101 H           7.7767   -5.4047    0.0000 H       1  UNL1        0.0236
    102 H           8.6254   -5.6251    0.0000 H       1  UNL1        0.0236
    103 H           8.8458   -4.7764    0.0000 H       1  UNL1        0.0236
    104 H           7.2302    4.0964    0.0000 H       1  UNL1        0.0271
    105 H           6.4319    4.0902    0.0000 H       1  UNL1        0.0271
    106 H           9.8732    0.7214    0.0000 H       1  UNL1        0.2098
    107 H           5.9202    4.2420    0.0000 H       1  UNL1        0.0235
    108 H           5.0699    4.4559    0.0000 H       1  UNL1        0.0235
    109 H           4.8560    3.6055    0.0000 H       1  UNL1        0.0235
    110 H           4.8920    3.6701    0.0000 H       1  UNL1        0.0235
    111 H           4.2816    3.0406    0.0000 H       1  UNL1        0.0235
    112 H           4.9111    2.4302    0.0000 H       1  UNL1        0.0235
    113 H           6.0010   -5.6545    0.0000 H       1  UNL1        0.0938
    114 H           6.0010   -7.8945    0.0000 H       1  UNL1        0.0671
    115 H          10.3715    1.9051    0.0000 H       1  UNL1        0.1097
    116 H           4.5981   -8.0845    0.0000 H       1  UNL1        0.0648
    117 H           4.2690   -5.6545    0.0000 H       1  UNL1        0.0741
    118 H           3.7320   -6.9645    0.0000 H       1  UNL1        0.0652
    119 H          10.3456    4.1449    0.0000 H       1  UNL1        0.0825
    120 H           7.4040   -7.4645    0.0000 H       1  UNL1        0.2101
    121 H          11.7463    4.3511    0.0000 H       1  UNL1        0.0659
    122 H          12.3151    1.9649    0.0000 H       1  UNL1        0.0588
    123 H          12.7056    2.6598    0.0000 H       1  UNL1        0.0588
    124 H          12.6252    3.2412    0.0000 H       1  UNL1        0.0643
    125 H           5.6720   -9.0845    0.0000 H       1  UNL1        0.2100
    126 H           3.4030   -8.3945    0.0000 H       1  UNL1        0.2100
    127 H          11.7347    5.3511    0.0000 H       1  UNL1        0.2101
    128 H          13.4854    3.7512    0.0000 H       1  UNL1        0.2100
    129 H           2.0000   -5.9645    0.0000 H       1  UNL1        0.2951
    130 H           8.0644    5.1886    0.0000 H       1  UNL1        0.0689
    131 H           9.1195    6.8209    0.0000 H       1  UNL1        0.0626
    132 H           8.2362    8.3108    0.0000 H       1  UNL1        0.0625
    133 H           6.8614    5.8648    0.0000 H       1  UNL1        0.0625
    134 H           6.8240    9.1045    0.0000 H       1  UNL1        0.0654
    135 H           5.4492    6.6585    0.0000 H       1  UNL1        0.0654
    136 H           5.0920    9.0845    0.0000 H       1  UNL1        0.2921
@<TRIPOS>BOND
     1    33     1    1
     2    47     1    1
     3    31     2    1
     4     2   106    1
     5     3    44    1
     6    49     3    1
     7     4    44    2
     8     5    47    1
     9     5    51    1
    10     6    49    1
    11     6    55    1
    12    48     7    1
    13     7   120    1
    14    50     8    1
    15     8   125    1
    16    53     9    1
    17     9    58    1
    18    52    10    1
    19    10   126    1
    20    54    11    1
    21    11   127    1
    22    56    12    1
    23    12   128    1
    24    13    57    1
    25    13   129    1
    26    14    57    2
    27    15    58    2
    28    16    66    1
    29    16   136    1
    30    17    18    1
    31    17    20    1
    32    17    22    1
    33    17    32    1
    34    18    19    1
    35    18    27    1
    36    18    67    1
    37    19    21    1
    38    19    28    1
    39    19    35    1
    40    20    24    1
    41    20    29    1
    42    20    37    1
    43    21    23    1
    44    21    25    1
    45    21    68    1
    46    22    23    1
    47    22    69    1
    48    22    70    1
    49    23    71    1
    50    23    72    1
    51    24    26    1
    52    24    34    2
    53    25    33    1
    54    25    41    1
    55    25    42    1
    56    26    30    1
    57    26    38    1
    58    26    73    1
    59    27    34    1
    60    27    74    1
    61    27    75    1
    62    28    36    1
    63    28    76    1
    64    28    77    1
    65    29    31    1
    66    29    78    1
    67    29    79    1
    68    30    31    1
    69    30    39    1
    70    30    44    1
    71    31    80    1
    72    32    81    1
    73    32    82    1
    74    32    83    1
    75    33    36    1
    76    33    84    1
    77    34    85    1
    78    35    86    1
    79    35    87    1
    80    35    88    1
    81    36    89    1
    82    36    90    1
    83    37    91    1
    84    37    92    1
    85    37    93    1
    86    38    40    1
    87    38    94    1
    88    38    95    1
    89    39    43    1
    90    39    96    1
    91    39    97    1
    92    40    43    1
    93    40    45    1
    94    40    46    1
    95    41    98    1
    96    41    99    1
    97    41   100    1
    98    42   101    1
    99    42   102    1
   100    42   103    1
   101    43   104    1
   102    43   105    1
   103    45   107    1
   104    45   108    1
   105    45   109    1
   106    46   110    1
   107    46   111    1
   108    46   112    1
   109    47    48    1
   110    47   113    1
   111    48    50    1
   112    48   114    1
   113    49    53    1
   114    49   115    1
   115    50    52    1
   116    50   116    1
   117    51    52    1
   118    51    57    1
   119    51   117    1
   120    52   118    1
   121    53    54    1
   122    53   119    1
   123    54    56    1
   124    54   121    1
   125    55    56    1
   126    55   122    1
   127    55   123    1
   128    56   124    1
   129    58    59    1
   130    59    60    2
   131    59   130    1
   132    60    61    1
   133    60   131    1
   134    61    62   ar
   135    61    63   ar
   136    62    64   ar
   137    62   132    1
   138    63    65   ar
   139    63   133    1
   140    64    66   ar
   141    64   134    1
   142    65    66   ar
   143    65   135    1
