@<TRIPOS>MOLECULE
IMPHY017419
 29 28 0 0 0
SMALL
GASTEIGER

@<TRIPOS>ATOM
      1 C           8.9282    0.4400    0.0000 C.3     1  UNL1       -0.0530
      2 C           8.0622   -0.0600    0.0000 C.3     1  UNL1       -0.0496
      3 C           9.7942   -0.0600    0.0000 C.3     1  UNL1       -0.0559
      4 C           7.1962    0.4400    0.0000 C.3     1  UNL1       -0.0339
      5 C          10.6603    0.4400    0.0000 C.3     1  UNL1       -0.0653
      6 C           6.3301   -0.0600    0.0000 C.2     1  UNL1       -0.0758
      7 C           5.4641    0.4400    0.0000 C.2     1  UNL1       -0.0155
      8 C           4.5981   -0.0600    0.0000 C.1     1  UNL1       -0.0744
      9 C           2.8660   -1.0600    0.0000 C.3     1  UNL1        0.0066
     10 C           2.0000   -0.5600    0.0000 C.3     1  UNL1       -0.0543
     11 C           3.7320   -0.5600    0.0000 C.1     1  UNL1       -0.0978
     12 H           9.3267    0.9149    0.0000 H       1  UNL1        0.0265
     13 H           8.5297    0.9149    0.0000 H       1  UNL1        0.0265
     14 H           7.6636   -0.5349    0.0000 H       1  UNL1        0.0268
     15 H           8.4607   -0.5349    0.0000 H       1  UNL1        0.0268
     16 H           9.3957   -0.5349    0.0000 H       1  UNL1        0.0263
     17 H          10.1928   -0.5349    0.0000 H       1  UNL1        0.0263
     18 H           7.5947    0.9149    0.0000 H       1  UNL1        0.0308
     19 H           6.7976    0.9149    0.0000 H       1  UNL1        0.0308
     20 H          10.9703   -0.0969    0.0000 H       1  UNL1        0.0230
     21 H          11.1972    0.7500    0.0000 H       1  UNL1        0.0230
     22 H          10.3503    0.9769    0.0000 H       1  UNL1        0.0230
     23 H           6.3301   -0.6800    0.0000 H       1  UNL1        0.0578
     24 H           5.4641    1.0600    0.0000 H       1  UNL1        0.0709
     25 H           2.4675   -1.5350    0.0000 H       1  UNL1        0.0395
     26 H           3.2646   -1.5350    0.0000 H       1  UNL1        0.0395
     27 H           2.3100   -0.0231    0.0000 H       1  UNL1        0.0239
     28 H           1.4631   -0.2500    0.0000 H       1  UNL1        0.0239
     29 H           1.6900   -1.0969    0.0000 H       1  UNL1        0.0239
@<TRIPOS>BOND
     1     1     2    1
     2     1     3    1
     3     1    12    1
     4     1    13    1
     5     2     4    1
     6     2    14    1
     7     2    15    1
     8     3     5    1
     9     3    16    1
    10     3    17    1
    11     4     6    1
    12     4    18    1
    13     4    19    1
    14     5    20    1
    15     5    21    1
    16     5    22    1
    17     6     7    2
    18     6    23    1
    19     7     8    1
    20     7    24    1
    21     8    11    3
    22     9    10    1
    23     9    11    1
    24     9    25    1
    25     9    26    1
    26    10    27    1
    27    10    28    1
    28    10    29    1
