@<TRIPOS>MOLECULE
IMPHY009234
 37 40 0 0 0
SMALL
GASTEIGER

@<TRIPOS>ATOM
      1 O           7.3855    2.1978    0.0000 O.3     1  UNL1       -0.4814
      2 O           5.5321   -0.9003    0.0000 O.2     1  UNL1       -0.4208
      3 O           3.7782    2.1311    0.0000 O.3     1  UNL1       -0.5059
      4 O           2.9176   -2.4349    0.0000 O.3     1  UNL1       -0.5059
      5 O           4.6660   -2.4003    0.0000 O.2     1  UNL1       -0.2444
      6 C           8.3252    1.6554    0.0000 C.3     1  UNL1        0.1235
      7 C           6.4421    0.6065    0.0000 C.ar    1  UNL1        0.0597
      8 C           6.4501    1.6481    0.0000 C.ar    1  UNL1        0.1359
      9 C           5.5321    0.0997    0.0000 C.ar    1  UNL1        0.1538
     10 C           4.6660    0.5997    0.0000 C.ar    1  UNL1        0.0676
     11 C           8.3168    0.5704    0.0000 C.2     1  UNL1       -0.0408
     12 C           7.3689    0.0424    0.0000 C.2     1  UNL1       -0.0478
     13 C           3.8000    0.0997    0.0000 C.ar    1  UNL1        0.0067
     14 C           9.3251    1.6515    0.0000 C.3     1  UNL1       -0.0215
     15 C           8.8285    2.5194    0.0000 C.3     1  UNL1       -0.0215
     16 C           4.6500    1.6412    0.0000 C.ar    1  UNL1        0.1316
     17 C           5.5480    2.1689    0.0000 C.ar    1  UNL1        0.0230
     18 C           3.8000   -0.9003    0.0000 C.ar    1  UNL1        0.1086
     19 C           4.6660   -1.4003    0.0000 C.ar    1  UNL1        0.3486
     20 C           2.9061    0.6343    0.0000 C.ar    1  UNL1       -0.0528
     21 C           2.9061   -1.4350    0.0000 C.ar    1  UNL1        0.1314
     22 C           2.0000    0.1205    0.0000 C.ar    1  UNL1       -0.0577
     23 C           2.0000   -0.9211    0.0000 C.ar    1  UNL1       -0.0193
     24 H           8.8501    0.2542    0.0000 H       1  UNL1        0.0611
     25 H           7.3570   -0.5774    0.0000 H       1  UNL1        0.0624
     26 H           9.3227    1.0315    0.0000 H       1  UNL1        0.0271
     27 H           9.9451    1.6491    0.0000 H       1  UNL1        0.0271
     28 H           9.3275    2.2715    0.0000 H       1  UNL1        0.0271
     29 H           9.3642    2.2074    0.0000 H       1  UNL1        0.0271
     30 H           9.1406    3.0552    0.0000 H       1  UNL1        0.0271
     31 H           8.2927    2.8315    0.0000 H       1  UNL1        0.0271
     32 H           5.5456    2.7889    0.0000 H       1  UNL1        0.0691
     33 H           2.9132    1.2543    0.0000 H       1  UNL1        0.0624
     34 H           1.4643    0.4326    0.0000 H       1  UNL1        0.0619
     35 H           1.4643   -1.2332    0.0000 H       1  UNL1        0.0654
     36 H           3.7711    2.7511    0.0000 H       1  UNL1        0.2922
     37 H           2.3843   -2.7511    0.0000 H       1  UNL1        0.2922
@<TRIPOS>BOND
     1     1     6    1
     2     1     8    1
     3     2     9   ar
     4     2    19   ar
     5     3    16    1
     6     3    36    1
     7     4    21    1
     8     4    37    1
     9     5    19    2
    10     6    11    1
    11     6    14    1
    12     6    15    1
    13     7     8   ar
    14     7     9   ar
    15     7    12    1
    16     8    17   ar
    17     9    10   ar
    18    10    13   ar
    19    10    16   ar
    20    11    12    2
    21    11    24    1
    22    12    25    1
    23    13    18   ar
    24    13    20   ar
    25    14    26    1
    26    14    27    1
    27    14    28    1
    28    15    29    1
    29    15    30    1
    30    15    31    1
    31    16    17   ar
    32    17    32    1
    33    18    19   ar
    34    18    21   ar
    35    20    22   ar
    36    20    33    1
    37    21    23   ar
    38    22    23   ar
    39    22    34    1
    40    23    35    1
