@<TRIPOS>MOLECULE
IMPHY005662
 163 171 0 0 0
SMALL
GASTEIGER

@<TRIPOS>ATOM
      1 O           9.4651   -0.1941    0.0000 O.3     1  UNL1       -0.3448
      2 O           7.0210    0.4975    0.0000 O.3     1  UNL1       -0.3944
      3 O           7.7113    9.0853    0.0000 O.3     1  UNL1       -0.3941
      4 O           7.7331   -0.1941    0.0000 O.3     1  UNL1       -0.3431
      5 O           9.4651   -2.1941    0.0000 O.3     1  UNL1       -0.3377
      6 O           7.7331   -3.1941    0.0000 O.3     1  UNL1       -0.3400
      7 O           6.0010   -2.1941    0.0000 O.3     1  UNL1       -0.3866
      8 O          10.3312   -0.6941    0.0000 O.3     1  UNL1       -0.3405
      9 O           6.0010   -3.1941    0.0000 O.3     1  UNL1       -0.3405
     10 O          11.1972   -3.1941    0.0000 O.3     1  UNL1       -0.3841
     11 O           7.7331   -5.1941    0.0000 O.3     1  UNL1       -0.3841
     12 O          12.9292   -2.1941    0.0000 O.3     1  UNL1       -0.3864
     13 O          12.9292   -0.1941    0.0000 O.3     1  UNL1       -0.3865
     14 O           6.0010   -6.1941    0.0000 O.3     1  UNL1       -0.3864
     15 O           4.2690   -5.1941    0.0000 O.3     1  UNL1       -0.3401
     16 O          12.0632    1.3059    0.0000 O.3     1  UNL1       -0.3924
     17 O           3.4030   -3.6941    0.0000 O.3     1  UNL1       -0.3924
     18 O           5.1350   -6.6941    0.0000 O.3     1  UNL1       -0.3431
     19 O           2.5369   -6.1941    0.0000 O.3     1  UNL1       -0.3841
     20 O           2.5369   -8.1941    0.0000 O.3     1  UNL1       -0.3864
     21 O           4.2690   -9.1941    0.0000 O.3     1  UNL1       -0.3866
     22 C           8.5641    4.5061    0.0000 C.3     1  UNL1       -0.0159
     23 C           9.4402    2.9612    0.0000 C.3     1  UNL1       -0.0217
     24 C           9.4282    4.0028    0.0000 C.3     1  UNL1       -0.0107
     25 C           8.5402    2.4369    0.0000 C.3     1  UNL1       -0.0252
     26 C           8.5679    5.5061    0.0000 C.3     1  UNL1       -0.0011
     27 C           8.5276    1.3520    0.0000 C.3     1  UNL1        0.0206
     28 C           7.6521    4.0028    0.0000 C.3     1  UNL1       -0.0460
     29 C           7.6401    2.9612    0.0000 C.3     1  UNL1       -0.0485
     30 C          10.3901    2.4369    0.0000 C.3     1  UNL1       -0.0444
     31 C           9.4359    6.0027    0.0000 C.2     1  UNL1       -0.0413
     32 C           7.6599    6.0164    0.0000 C.3     1  UNL1       -0.0422
     33 C           9.4651    0.8059    0.0000 C.3     1  UNL1        0.0695
     34 C          10.4027    1.3520    0.0000 C.3     1  UNL1       -0.0254
     35 C           7.5800    4.6835    0.0000 C.3     1  UNL1       -0.0582
     36 C          10.2961    4.4994    0.0000 C.2     1  UNL1       -0.0796
     37 C           8.5600    7.5754    0.0000 C.3     1  UNL1        0.0154
     38 C          10.3043    3.4645    0.0000 C.3     1  UNL1       -0.0587
     39 C           9.4560    7.0442    0.0000 C.2     1  UNL1       -0.0570
     40 C           7.6559    7.0580    0.0000 C.3     1  UNL1       -0.0407
     41 C           7.5825    5.3363    0.0000 C.3     1  UNL1       -0.0550
     42 C          10.3000    5.4994    0.0000 C.2     1  UNL1       -0.0617
     43 C           7.5276    1.3597    0.0000 C.3     1  UNL1        0.0522
     44 C           8.0209    0.4898    0.0000 C.3     1  UNL1       -0.0548
     45 C           8.5558    8.6604    0.0000 C.3     1  UNL1       -0.0411
     46 C          10.4099    7.5611    0.0000 C.3     1  UNL1       -0.0254
     47 C          10.4308    8.6459    0.0000 C.3     1  UNL1       -0.0311
     48 C           9.4975    9.1992    0.0000 C.3     1  UNL1       -0.0467
     49 C           7.6998    8.0854    0.0000 C.3     1  UNL1        0.0535
     50 C           8.5991   -0.6941    0.0000 C.3     1  UNL1        0.1885
     51 C          10.9441    9.5041    0.0000 C.3     1  UNL1       -0.0595
     52 C          11.4307    8.6305    0.0000 C.3     1  UNL1       -0.0595
     53 C           8.5991   -1.6941    0.0000 C.3     1  UNL1        0.1410
     54 C           7.7331   -2.1941    0.0000 C.3     1  UNL1        0.1209
     55 C           6.8671   -0.6941    0.0000 C.3     1  UNL1        0.0873
     56 C           6.8671   -1.6941    0.0000 C.3     1  UNL1        0.1099
     57 C           6.0010   -0.1941    0.0000 C.3     1  UNL1       -0.0361
     58 C          10.3312   -1.6941    0.0000 C.3     1  UNL1        0.1885
     59 C           6.8671   -3.6941    0.0000 C.3     1  UNL1        0.1884
     60 C          11.1972   -2.1941    0.0000 C.3     1  UNL1        0.1341
     61 C           6.8671   -4.6941    0.0000 C.3     1  UNL1        0.1341
     62 C          12.0632   -1.6941    0.0000 C.3     1  UNL1        0.1141
     63 C          11.1972   -0.1941    0.0000 C.3     1  UNL1        0.1130
     64 C          12.0632   -0.6941    0.0000 C.3     1  UNL1        0.1119
     65 C           6.0010   -5.1941    0.0000 C.3     1  UNL1        0.1144
     66 C           5.1350   -3.6941    0.0000 C.3     1  UNL1        0.1134
     67 C           5.1350   -4.6941    0.0000 C.3     1  UNL1        0.1184
     68 C          11.1972    0.8059    0.0000 C.3     1  UNL1        0.0730
     69 C           4.2690   -3.1941    0.0000 C.3     1  UNL1        0.0730
     70 C           4.2690   -6.1941    0.0000 C.3     1  UNL1        0.1883
     71 C           3.4030   -6.6941    0.0000 C.3     1  UNL1        0.1341
     72 C           3.4030   -7.6941    0.0000 C.3     1  UNL1        0.1140
     73 C           5.1350   -7.6941    0.0000 C.3     1  UNL1        0.0873
     74 C           4.2690   -8.1941    0.0000 C.3     1  UNL1        0.1095
     75 C           6.0010   -8.1941    0.0000 C.3     1  UNL1       -0.0361
     76 H          10.1659    3.5806    0.0000 H       1  UNL1        0.0354
     77 H           7.8008    2.0176    0.0000 H       1  UNL1        0.0313
     78 H           7.4498    4.5888    0.0000 H       1  UNL1        0.0271
     79 H           7.0401    3.9037    0.0000 H       1  UNL1        0.0271
     80 H           7.0305    3.0743    0.0000 H       1  UNL1        0.0268
     81 H           7.4243    2.3800    0.0000 H       1  UNL1        0.0268
     82 H          11.0022    2.3379    0.0000 H       1  UNL1        0.0272
     83 H          10.5924    3.0230    0.0000 H       1  UNL1        0.0272
     84 H           7.0486    6.1202    0.0000 H       1  UNL1        0.0274
     85 H           7.4531    5.4319    0.0000 H       1  UNL1        0.0274
     86 H          10.2021    0.3823    0.0000 H       1  UNL1        0.0603
     87 H          10.6185    0.7707    0.0000 H       1  UNL1        0.0290
     88 H          11.0123    1.4651    0.0000 H       1  UNL1        0.0290
     89 H           7.6900    5.2937    0.0000 H       1  UNL1        0.0236
     90 H           6.9698    4.7936    0.0000 H       1  UNL1        0.0236
     91 H           7.4699    4.0734    0.0000 H       1  UNL1        0.0236
     92 H          10.8319    4.1873    0.0000 H       1  UNL1        0.0575
     93 H          10.6164    2.9288    0.0000 H       1  UNL1        0.0235
     94 H          10.8400    3.7766    0.0000 H       1  UNL1        0.0235
     95 H           9.9922    4.0003    0.0000 H       1  UNL1        0.0235
     96 H           7.4446    7.6409    0.0000 H       1  UNL1        0.0275
     97 H           7.0454    6.9496    0.0000 H       1  UNL1        0.0275
     98 H           7.4772    5.9473    0.0000 H       1  UNL1        0.0238
     99 H           6.9715    5.2310    0.0000 H       1  UNL1        0.0238
    100 H           7.6877    4.7253    0.0000 H       1  UNL1        0.0238
    101 H          10.8381    5.8073    0.0000 H       1  UNL1        0.0617
    102 H           7.6400    1.9694    0.0000 H       1  UNL1        0.0563
    103 H           6.9467    1.5762    0.0000 H       1  UNL1        0.0563
    104 H           7.4864    0.8040    0.0000 H       1  UNL1        0.0237
    105 H           7.7068   -0.0447    0.0000 H       1  UNL1        0.0237
    106 H           8.5555    0.1757    0.0000 H       1  UNL1        0.0237
    107 H           8.3445    9.2433    0.0000 H       1  UNL1        0.0275
    108 H           7.9453    8.5519    0.0000 H       1  UNL1        0.0275
    109 H          10.6076    6.9735    0.0000 H       1  UNL1        0.0316
    110 H          11.0227    7.6554    0.0000 H       1  UNL1        0.0316
    111 H           9.9003    9.6706    0.0000 H       1  UNL1        0.0271
    112 H           9.1020    9.6767    0.0000 H       1  UNL1        0.0271
    113 H           7.0905    8.2001    0.0000 H       1  UNL1        0.0566
    114 H           7.4810    7.5052    0.0000 H       1  UNL1        0.0566
    115 H           8.5991    0.1559    0.0000 H       1  UNL1        0.0938
    116 H          11.4762    9.1859    0.0000 H       1  UNL1        0.0235
    117 H          11.2623   10.0362    0.0000 H       1  UNL1        0.0235
    118 H          10.4120    9.8224    0.0000 H       1  UNL1        0.0235
    119 H          11.4211    8.0106    0.0000 H       1  UNL1        0.0235
    120 H          12.0506    8.6209    0.0000 H       1  UNL1        0.0235
    121 H          11.4402    9.2504    0.0000 H       1  UNL1        0.0235
    122 H           6.4010    0.5023    0.0000 H       1  UNL1        0.2094
    123 H           8.5991   -2.5441    0.0000 H       1  UNL1        0.0675
    124 H           7.1780    9.4015    0.0000 H       1  UNL1        0.2094
    125 H           6.9970   -2.6191    0.0000 H       1  UNL1        0.0651
    126 H           6.8671    0.1559    0.0000 H       1  UNL1        0.0621
    127 H           6.1309   -1.2691    0.0000 H       1  UNL1        0.0646
    128 H           6.3110    0.3428    0.0000 H       1  UNL1        0.0255
    129 H           5.4641    0.1159    0.0000 H       1  UNL1        0.0255
    130 H           5.6910   -0.7311    0.0000 H       1  UNL1        0.0255
    131 H          10.3312   -2.5441    0.0000 H       1  UNL1        0.0938
    132 H           5.4641   -1.8841    0.0000 H       1  UNL1        0.2100
    133 H           7.6032   -4.1191    0.0000 H       1  UNL1        0.0938
    134 H          11.9333   -2.6191    0.0000 H       1  UNL1        0.0671
    135 H           6.8671   -5.5441    0.0000 H       1  UNL1        0.0671
    136 H          12.7993   -1.2691    0.0000 H       1  UNL1        0.0648
    137 H          10.4611    0.2309    0.0000 H       1  UNL1        0.0647
    138 H          12.0632    0.1559    0.0000 H       1  UNL1        0.0647
    139 H           5.2649   -5.6191    0.0000 H       1  UNL1        0.0648
    140 H           5.1350   -2.8441    0.0000 H       1  UNL1        0.0647
    141 H           4.3989   -4.2691    0.0000 H       1  UNL1        0.0651
    142 H          10.6603   -3.5041    0.0000 H       1  UNL1        0.2101
    143 H          10.9851    1.3885    0.0000 H       1  UNL1        0.0584
    144 H          10.5866    0.6982    0.0000 H       1  UNL1        0.0584
    145 H           7.7331   -5.8141    0.0000 H       1  UNL1        0.2101
    146 H          13.4662   -1.8841    0.0000 H       1  UNL1        0.2100
    147 H           4.6675   -2.7192    0.0000 H       1  UNL1        0.0584
    148 H           3.8705   -2.7192    0.0000 H       1  UNL1        0.0584
    149 H          12.9292    0.4259    0.0000 H       1  UNL1        0.2100
    150 H           6.5380   -6.5041    0.0000 H       1  UNL1        0.2100
    151 H          12.0632    1.9259    0.0000 H       1  UNL1        0.2095
    152 H           3.5329   -5.7691    0.0000 H       1  UNL1        0.0938
    153 H           2.8660   -3.3841    0.0000 H       1  UNL1        0.2095
    154 H           4.1391   -7.1191    0.0000 H       1  UNL1        0.0671
    155 H           3.4030   -8.5441    0.0000 H       1  UNL1        0.0648
    156 H           5.8711   -7.2691    0.0000 H       1  UNL1        0.0621
    157 H           5.0051   -8.6191    0.0000 H       1  UNL1        0.0646
    158 H           2.0000   -6.5041    0.0000 H       1  UNL1        0.2101
    159 H           5.6910   -8.7311    0.0000 H       1  UNL1        0.0255
    160 H           6.5380   -8.5041    0.0000 H       1  UNL1        0.0255
    161 H           6.3110   -7.6572    0.0000 H       1  UNL1        0.0255
    162 H           2.5369   -8.8141    0.0000 H       1  UNL1        0.2100
    163 H           4.8059   -9.5041    0.0000 H       1  UNL1        0.2100
@<TRIPOS>BOND
     1     1    33    1
     2     1    50    1
     3     2    43    1
     4     2   122    1
     5     3    49    1
     6     3   124    1
     7     4    50    1
     8     4    55    1
     9     5    53    1
    10     5    58    1
    11     6    54    1
    12     6    59    1
    13     7    56    1
    14     7   132    1
    15     8    58    1
    16     8    63    1
    17     9    59    1
    18     9    66    1
    19    10    60    1
    20    10   142    1
    21    11    61    1
    22    11   145    1
    23    12    62    1
    24    12   146    1
    25    13    64    1
    26    13   149    1
    27    14    65    1
    28    14   150    1
    29    15    67    1
    30    15    70    1
    31    16    68    1
    32    16   151    1
    33    17    69    1
    34    17   153    1
    35    18    70    1
    36    18    73    1
    37    19    71    1
    38    19   158    1
    39    20    72    1
    40    20   162    1
    41    21    74    1
    42    21   163    1
    43    22    24    1
    44    22    26    1
    45    22    28    1
    46    22    35    1
    47    23    24    1
    48    23    25    1
    49    23    30    1
    50    23    38    1
    51    24    36    1
    52    24    76    1
    53    25    27    1
    54    25    29    1
    55    25    77    1
    56    26    31    1
    57    26    32    1
    58    26    41    1
    59    27    33    1
    60    27    43    1
    61    27    44    1
    62    28    29    1
    63    28    78    1
    64    28    79    1
    65    29    80    1
    66    29    81    1
    67    30    34    1
    68    30    82    1
    69    30    83    1
    70    31    39    2
    71    31    42    1
    72    32    40    1
    73    32    84    1
    74    32    85    1
    75    33    34    1
    76    33    86    1
    77    34    87    1
    78    34    88    1
    79    35    89    1
    80    35    90    1
    81    35    91    1
    82    36    42    2
    83    36    92    1
    84    37    39    1
    85    37    40    1
    86    37    45    1
    87    37    49    1
    88    38    93    1
    89    38    94    1
    90    38    95    1
    91    39    46    1
    92    40    96    1
    93    40    97    1
    94    41    98    1
    95    41    99    1
    96    41   100    1
    97    42   101    1
    98    43   102    1
    99    43   103    1
   100    44   104    1
   101    44   105    1
   102    44   106    1
   103    45    48    1
   104    45   107    1
   105    45   108    1
   106    46    47    1
   107    46   109    1
   108    46   110    1
   109    47    48    1
   110    47    51    1
   111    47    52    1
   112    48   111    1
   113    48   112    1
   114    49   113    1
   115    49   114    1
   116    50    53    1
   117    50   115    1
   118    51   116    1
   119    51   117    1
   120    51   118    1
   121    52   119    1
   122    52   120    1
   123    52   121    1
   124    53    54    1
   125    53   123    1
   126    54    56    1
   127    54   125    1
   128    55    56    1
   129    55    57    1
   130    55   126    1
   131    56   127    1
   132    57   128    1
   133    57   129    1
   134    57   130    1
   135    58    60    1
   136    58   131    1
   137    59    61    1
   138    59   133    1
   139    60    62    1
   140    60   134    1
   141    61    65    1
   142    61   135    1
   143    62    64    1
   144    62   136    1
   145    63    64    1
   146    63    68    1
   147    63   137    1
   148    64   138    1
   149    65    67    1
   150    65   139    1
   151    66    67    1
   152    66    69    1
   153    66   140    1
   154    67   141    1
   155    68   143    1
   156    68   144    1
   157    69   147    1
   158    69   148    1
   159    70    71    1
   160    70   152    1
   161    71    72    1
   162    71   154    1
   163    72    74    1
   164    72   155    1
   165    73    74    1
   166    73    75    1
   167    73   156    1
   168    74   157    1
   169    75   159    1
   170    75   160    1
   171    75   161    1
