@<TRIPOS>MOLECULE
IMPHY003322
 40 44 0 0 0
SMALL
GASTEIGER

@<TRIPOS>ATOM
      1 O           6.9742    1.2637    0.0000 O.3     1  UNL1       -0.4520
      2 O           6.9742    2.8732    0.0000 O.3     1  UNL1       -0.4526
      3 O           6.9861    0.0229    0.0000 O.3     1  UNL1       -0.5029
      4 O           7.0184   -2.0685    0.0000 O.3     1  UNL1       -0.4914
      5 N           2.5466    1.5898    0.0000 N.3     1  UNL1       -0.3087
      6 C           3.3859    1.0616    0.0000 C.3     1  UNL1        0.0378
      7 C           4.2959    1.5684    0.0000 C.ar    1  UNL1       -0.0154
      8 C           3.3779    0.0200    0.0000 C.3     1  UNL1       -0.0074
      9 C           5.1619    1.0684    0.0000 C.ar    1  UNL1        0.0364
     10 C           4.2959    2.5684    0.0000 C.ar    1  UNL1       -0.0372
     11 C           3.4377    3.0654    0.0000 C.3     1  UNL1       -0.0146
     12 C           4.2799   -0.5008    0.0000 C.ar    1  UNL1       -0.0340
     13 C           5.1780    0.0269    0.0000 C.ar    1  UNL1        0.0344
     14 C           2.5722    2.5812    0.0000 C.3     1  UNL1        0.0004
     15 C           6.0279    1.5684    0.0000 C.ar    1  UNL1        0.1743
     16 C           5.1619    3.0684    0.0000 C.ar    1  UNL1       -0.0126
     17 C           6.0279    2.5684    0.0000 C.ar    1  UNL1        0.1671
     18 C           6.1299   -0.4937    0.0000 C.ar    1  UNL1        0.1667
     19 C           4.2716   -1.5858    0.0000 C.ar    1  UNL1       -0.0542
     20 C           6.1466   -1.5786    0.0000 C.ar    1  UNL1        0.1619
     21 C           5.2112   -2.1283    0.0000 C.ar    1  UNL1       -0.0160
     22 C           7.5578    2.0684    0.0000 C.3     1  UNL1        0.2333
     23 C           7.0299   -3.0684    0.0000 C.3     1  UNL1        0.0790
     24 H           2.6402    0.6536    0.0000 H       1  UNL1        0.0513
     25 H           2.7678    0.1308    0.0000 H       1  UNL1        0.0332
     26 H           3.1643   -0.5621    0.0000 H       1  UNL1        0.0332
     27 H           3.8387    3.5382    0.0000 H       1  UNL1        0.0326
     28 H           3.0436    3.5441    0.0000 H       1  UNL1        0.0326
     29 H           2.0000    1.2972    0.0000 H       1  UNL1        0.1225
     30 H           2.3704    3.1675    0.0000 H       1  UNL1        0.0427
     31 H           1.9594    2.4868    0.0000 H       1  UNL1        0.0427
     32 H           5.1619    3.6884    0.0000 H       1  UNL1        0.0658
     33 H           3.7334   -1.8937    0.0000 H       1  UNL1        0.0622
     34 H           5.2136   -2.7483    0.0000 H       1  UNL1        0.0655
     35 H           8.0186    1.6537    0.0000 H       1  UNL1        0.1166
     36 H           8.0186    2.4832    0.0000 H       1  UNL1        0.1166
     37 H           7.5289   -0.2767    0.0000 H       1  UNL1        0.2923
     38 H           6.4100   -3.0756    0.0000 H       1  UNL1        0.0660
     39 H           7.0371   -3.6884    0.0000 H       1  UNL1        0.0660
     40 H           7.6499   -3.0613    0.0000 H       1  UNL1        0.0660
@<TRIPOS>BOND
     1     1    15    1
     2     1    22    1
     3     2    17    1
     4     2    22    1
     5     3    18    1
     6     3    37    1
     7     4    20    1
     8     4    23    1
     9     5     6    1
    10     5    14    1
    11     5    29    1
    12     6     7    1
    13     6     8    1
    14     6    24    1
    15     7     9   ar
    16     7    10   ar
    17     8    12    1
    18     8    25    1
    19     8    26    1
    20     9    13    1
    21     9    15   ar
    22    10    11    1
    23    10    16   ar
    24    11    14    1
    25    11    27    1
    26    11    28    1
    27    12    13   ar
    28    12    19   ar
    29    13    18   ar
    30    14    30    1
    31    14    31    1
    32    15    17   ar
    33    16    17   ar
    34    16    32    1
    35    18    20   ar
    36    19    21   ar
    37    19    33    1
    38    20    21   ar
    39    21    34    1
    40    22    35    1
    41    22    36    1
    42    23    38    1
    43    23    39    1
    44    23    40    1
