@<TRIPOS>MOLECULE
IMPHY006751
 79 82 0 0 0
SMALL
GASTEIGER

@<TRIPOS>ATOM
      1 O           2.0000   -3.4959    0.0000 O.2     1  UNL1       -0.2968
      2 O          12.5175    4.2819    0.0000 O.3     1  UNL1       -0.4774
      3 O          12.8747    2.5870    0.0000 O.2     1  UNL1       -0.2455
      4 C           7.3931   -0.4436    0.0000 C.3     1  UNL1       -0.0196
      5 C           7.3931   -1.4436    0.0000 C.3     1  UNL1       -0.0051
      6 C           8.3393   -0.1389    0.0000 C.3     1  UNL1       -0.0322
      7 C           6.5271   -1.9436    0.0000 C.2     1  UNL1       -0.0633
      8 C           4.7510   -1.9504    0.0000 C.3     1  UNL1       -0.0067
      9 C           8.3393   -1.7483    0.0000 C.3     1  UNL1       -0.0431
     10 C           6.5271    0.0564    0.0000 C.3     1  UNL1       -0.0429
     11 C           5.6610   -1.4436    0.0000 C.2     1  UNL1       -0.0635
     12 C           8.9229   -0.9436    0.0000 C.3     1  UNL1       -0.0486
     13 C           4.7430   -2.9920    0.0000 C.3     1  UNL1       -0.0198
     14 C           5.6610   -0.4436    0.0000 C.3     1  UNL1       -0.0304
     15 C           6.5431   -2.9851    0.0000 C.3     1  UNL1       -0.0306
     16 C           8.6500    0.8116    0.0000 C.3     1  UNL1       -0.0402
     17 C           5.6451   -3.5129    0.0000 C.3     1  UNL1       -0.0448
     18 C           7.3931    0.5564    0.0000 C.3     1  UNL1       -0.0585
     19 C           7.3931   -2.4436    0.0000 C.3     1  UNL1       -0.0553
     20 C           3.8076   -3.5418    0.0000 C.3     1  UNL1        0.0270
     21 C           3.8242   -1.3864    0.0000 C.3     1  UNL1       -0.0369
     22 C           4.7587   -0.9505    0.0000 C.3     1  UNL1       -0.0555
     23 C           2.8763   -1.9143    0.0000 C.3     1  UNL1        0.0072
     24 C           2.8680   -2.9993    0.0000 C.2     1  UNL1        0.1392
     25 C           9.6285    1.0179    0.0000 C.3     1  UNL1       -0.0467
     26 C           7.9821    1.5560    0.0000 C.3     1  UNL1       -0.0621
     27 C           3.3109   -4.4097    0.0000 C.3     1  UNL1       -0.0528
     28 C           4.3109   -4.4059    0.0000 C.3     1  UNL1       -0.0528
     29 C           9.9391    1.9684    0.0000 C.3     1  UNL1       -0.0338
     30 C          10.9176    2.1746    0.0000 C.2     1  UNL1       -0.0743
     31 C          11.2283    3.1251    0.0000 C.2     1  UNL1        0.0294
     32 C          10.5605    3.8694    0.0000 C.3     1  UNL1       -0.0332
     33 C          12.2068    3.3314    0.0000 C.2     1  UNL1        0.3322
     34 H           9.1790   -0.0070    0.0000 H       1  UNL1        0.0309
     35 H           8.0883   -2.3152    0.0000 H       1  UNL1        0.0274
     36 H           8.8767   -2.0576    0.0000 H       1  UNL1        0.0274
     37 H           6.9256    0.5313    0.0000 H       1  UNL1        0.0274
     38 H           6.1285    0.5313    0.0000 H       1  UNL1        0.0274
     39 H           9.3838   -1.3583    0.0000 H       1  UNL1        0.0268
     40 H           9.3838   -0.5289    0.0000 H       1  UNL1        0.0268
     41 H           4.7463   -3.8420    0.0000 H       1  UNL1        0.0318
     42 H           5.4490    0.1390    0.0000 H       1  UNL1        0.0310
     43 H           5.0504   -0.5513    0.0000 H       1  UNL1        0.0310
     44 H           6.7612   -3.5655    0.0000 H       1  UNL1        0.0310
     45 H           7.1523   -2.8696    0.0000 H       1  UNL1        0.0310
     46 H           8.0433    0.6838    0.0000 H       1  UNL1        0.0301
     47 H           5.2478   -3.9888    0.0000 H       1  UNL1        0.0271
     48 H           6.0460   -3.9858    0.0000 H       1  UNL1        0.0271
     49 H           8.0131    0.5564    0.0000 H       1  UNL1        0.0235
     50 H           7.3931    1.1764    0.0000 H       1  UNL1        0.0235
     51 H           6.7731    0.5564    0.0000 H       1  UNL1        0.0235
     52 H           6.7731   -2.4436    0.0000 H       1  UNL1        0.0238
     53 H           7.3931   -3.0636    0.0000 H       1  UNL1        0.0238
     54 H           8.0131   -2.4436    0.0000 H       1  UNL1        0.0238
     55 H           4.2324   -0.9197    0.0000 H       1  UNL1        0.0278
     56 H           3.4343   -0.9043    0.0000 H       1  UNL1        0.0278
     57 H           5.3787   -0.9553    0.0000 H       1  UNL1        0.0238
     58 H           4.7635   -0.3305    0.0000 H       1  UNL1        0.0238
     59 H           4.1388   -0.9457    0.0000 H       1  UNL1        0.0238
     60 H           2.6718   -1.3290    0.0000 H       1  UNL1        0.0342
     61 H           2.2647   -2.0157    0.0000 H       1  UNL1        0.0342
     62 H           9.6490    0.3982    0.0000 H       1  UNL1        0.0271
     63 H          10.2423    0.9305    0.0000 H       1  UNL1        0.0271
     64 H           8.4436    1.9700    0.0000 H       1  UNL1        0.0233
     65 H           7.5681    2.0174    0.0000 H       1  UNL1        0.0233
     66 H           7.5207    1.1419    0.0000 H       1  UNL1        0.0233
     67 H           3.7752   -4.7179    0.0000 H       1  UNL1        0.0239
     68 H           4.6230   -4.9416    0.0000 H       1  UNL1        0.0239
     69 H           4.8466   -4.0938    0.0000 H       1  UNL1        0.0239
     70 H           2.7728   -4.1018    0.0000 H       1  UNL1        0.0239
     71 H           3.0030   -4.9478    0.0000 H       1  UNL1        0.0239
     72 H           3.8490   -4.7176    0.0000 H       1  UNL1        0.0239
     73 H           9.9186    2.5880    0.0000 H       1  UNL1        0.0308
     74 H           9.3253    2.0557    0.0000 H       1  UNL1        0.0308
     75 H          11.3317    1.7131    0.0000 H       1  UNL1        0.0577
     76 H          11.0219    4.2835    0.0000 H       1  UNL1        0.0280
     77 H          10.1464    4.3309    0.0000 H       1  UNL1        0.0280
     78 H          10.0990    3.4554    0.0000 H       1  UNL1        0.0280
     79 H          13.1241    4.4097    0.0000 H       1  UNL1        0.2954
@<TRIPOS>BOND
     1     1    24    2
     2     2    33    1
     3     2    79    1
     4     3    33    2
     5     4     5    1
     6     4     6    1
     7     4    10    1
     8     4    18    1
     9     5     7    1
    10     5     9    1
    11     5    19    1
    12     6    12    1
    13     6    16    1
    14     6    34    1
    15     7    11    2
    16     7    15    1
    17     8    11    1
    18     8    13    1
    19     8    21    1
    20     8    22    1
    21     9    12    1
    22     9    35    1
    23     9    36    1
    24    10    14    1
    25    10    37    1
    26    10    38    1
    27    11    14    1
    28    12    39    1
    29    12    40    1
    30    13    17    1
    31    13    20    1
    32    13    41    1
    33    14    42    1
    34    14    43    1
    35    15    17    1
    36    15    44    1
    37    15    45    1
    38    16    25    1
    39    16    26    1
    40    16    46    1
    41    17    47    1
    42    17    48    1
    43    18    49    1
    44    18    50    1
    45    18    51    1
    46    19    52    1
    47    19    53    1
    48    19    54    1
    49    20    24    1
    50    20    27    1
    51    20    28    1
    52    21    23    1
    53    21    55    1
    54    21    56    1
    55    22    57    1
    56    22    58    1
    57    22    59    1
    58    23    24    1
    59    23    60    1
    60    23    61    1
    61    25    29    1
    62    25    62    1
    63    25    63    1
    64    26    64    1
    65    26    65    1
    66    26    66    1
    67    27    70    1
    68    27    71    1
    69    27    72    1
    70    28    67    1
    71    28    68    1
    72    28    69    1
    73    29    30    1
    74    29    73    1
    75    29    74    1
    76    30    31    2
    77    30    75    1
    78    31    32    1
    79    31    33    1
    80    32    76    1
    81    32    77    1
    82    32    78    1
