@<TRIPOS>MOLECULE
IMPHY002168
 40 42 0 0 0
SMALL
GASTEIGER

@<TRIPOS>ATOM
      1 O           3.4027   -3.1483    0.0000 O.3     1  UNL1       -0.3592
      2 O           5.8720   -0.4808    0.0000 O.3     1  UNL1       -0.4534
      3 O           2.5369   -0.6479    0.0000 O.3     1  UNL1       -0.3847
      4 O           5.1350   -4.1479    0.0000 O.3     1  UNL1       -0.3921
      5 O           5.9669    1.2930    0.0000 O.2     1  UNL1       -0.2453
      6 C           4.2690   -2.6479    0.0000 C.3     1  UNL1        0.1253
      7 C           3.4030   -2.1479    0.0000 C.3     1  UNL1        0.1204
      8 C           5.1350   -2.1479    0.0000 C.3     1  UNL1        0.0223
      9 C           3.4030   -1.1479    0.0000 C.3     1  UNL1        0.1092
     10 C           5.1350   -1.1479    0.0000 C.3     1  UNL1        0.1304
     11 C           4.2690   -0.6479    0.0000 C.2     1  UNL1        0.0112
     12 C           5.1350   -3.1479    0.0000 C.3     1  UNL1        0.0759
     13 C           4.4782    0.3239    0.0000 C.2     1  UNL1        0.0421
     14 C           5.4669    0.4270    0.0000 C.2     1  UNL1        0.3359
     15 C           3.8104    1.0682    0.0000 C.3     1  UNL1       -0.0173
     16 C           4.1210    2.0188    0.0000 C.3     1  UNL1       -0.0303
     17 C           3.4532    2.7631    0.0000 C.2     1  UNL1       -0.0850
     18 C           3.7638    3.7136    0.0000 C.2     1  UNL1       -0.0796
     19 C           3.0960    4.4579    0.0000 C.3     1  UNL1       -0.0440
     20 C           4.7423    3.9198    0.0000 C.3     1  UNL1       -0.0440
     21 H           2.5530   -2.1478    0.0000 H       1  UNL1        0.0655
     22 H           5.3471   -2.7305    0.0000 H       1  UNL1        0.0334
     23 H           5.7456   -2.0402    0.0000 H       1  UNL1        0.0334
     24 H           3.4030   -0.5279    0.0000 H       1  UNL1        0.0669
     25 H           5.9120   -1.4926    0.0000 H       1  UNL1        0.0784
     26 H           5.7456   -3.2555    0.0000 H       1  UNL1        0.0587
     27 H           5.3471   -2.5653    0.0000 H       1  UNL1        0.0587
     28 H           2.0000   -0.9579    0.0000 H       1  UNL1        0.2103
     29 H           3.2634    1.3603    0.0000 H       1  UNL1        0.0318
     30 H           3.4278    0.5803    0.0000 H       1  UNL1        0.0318
     31 H           5.6720   -4.4579    0.0000 H       1  UNL1        0.2095
     32 H           4.6679    1.7267    0.0000 H       1  UNL1        0.0311
     33 H           4.5036    2.5067    0.0000 H       1  UNL1        0.0311
     34 H           2.8465    2.6352    0.0000 H       1  UNL1        0.0572
     35 H           3.5574    4.8719    0.0000 H       1  UNL1        0.0274
     36 H           4.8702    3.3131    0.0000 H       1  UNL1        0.0274
     37 H           5.3490    4.0476    0.0000 H       1  UNL1        0.0274
     38 H           2.6819    4.9194    0.0000 H       1  UNL1        0.0274
     39 H           2.6345    4.0438    0.0000 H       1  UNL1        0.0274
     40 H           4.6145    4.5265    0.0000 H       1  UNL1        0.0274
@<TRIPOS>BOND
     1     1     6    1
     2     1     7    1
     3     2    10    1
     4     2    14    1
     5     9     3    1
     6     3    28    1
     7     4    12    1
     8     4    31    1
     9     5    14    2
    10     6     7    1
    11     6     8    1
    12     6    12    1
    13     7     9    1
    14     7    21    1
    15     8    10    1
    16     8    22    1
    17     8    23    1
    18     9    11    1
    19     9    24    1
    20    10    11    1
    21    10    25    1
    22    11    13    2
    23    12    26    1
    24    12    27    1
    25    13    14    1
    26    13    15    1
    27    15    16    1
    28    15    29    1
    29    15    30    1
    30    16    17    1
    31    16    32    1
    32    16    33    1
    33    17    18    2
    34    17    34    1
    35    18    19    1
    36    18    20    1
    37    19    35    1
    38    19    38    1
    39    19    39    1
    40    20    36    1
    41    20    37    1
    42    20    40    1
