@<TRIPOS>MOLECULE
IMPHY008642
 52 55 0 0 0
SMALL
GASTEIGER

@<TRIPOS>ATOM
      1 O           6.0010    0.3560    0.0000 O.3     1  UNL1       -0.3215
      2 O           6.9499    1.0432    0.0000 O.3     1  UNL1       -0.3472
      3 O           6.8671   -1.1440    0.0000 O.3     1  UNL1       -0.3196
      4 O           8.9900   -0.8993    0.0000 O.3     1  UNL1       -0.3818
      5 O           5.1350   -1.1440    0.0000 O.3     1  UNL1       -0.3404
      6 O           6.8671    3.5880    0.0000 O.3     1  UNL1       -0.4676
      7 O           5.3671    2.7220    0.0000 O.2     1  UNL1       -0.2503
      8 O           6.8671   -3.1440    0.0000 O.3     1  UNL1       -0.3841
      9 O           5.1350   -4.1440    0.0000 O.3     1  UNL1       -0.3864
     10 O           3.4030   -3.1440    0.0000 O.3     1  UNL1       -0.3865
     11 O           2.5369   -1.6440    0.0000 O.3     1  UNL1       -0.3924
     12 C           7.7331    0.3560    0.0000 C.3     1  UNL1        0.0520
     13 C           7.7331    1.3560    0.0000 C.3     1  UNL1        0.0053
     14 C           8.6793    0.0512    0.0000 C.3     1  UNL1        0.1154
     15 C           6.8671    1.8560    0.0000 C.3     1  UNL1        0.1139
     16 C           6.8671   -0.1440    0.0000 C.3     1  UNL1        0.1715
     17 C           6.0010    1.3560    0.0000 C.3     1  UNL1        0.1756
     18 C           7.8481    0.6056    0.0000 C.3     1  UNL1        0.0834
     19 C           8.6793    1.6607    0.0000 C.2     1  UNL1       -0.0806
     20 C           9.2629    0.8560    0.0000 C.2     1  UNL1       -0.0538
     21 C           6.3671    2.7220    0.0000 C.2     1  UNL1        0.3154
     22 C           6.0010   -1.6440    0.0000 C.3     1  UNL1        0.1908
     23 C           6.0010   -2.6440    0.0000 C.3     1  UNL1        0.1342
     24 C           5.1350   -3.1440    0.0000 C.3     1  UNL1        0.1141
     25 C           4.2690   -2.6440    0.0000 C.3     1  UNL1        0.1119
     26 C           4.2690   -1.6440    0.0000 C.3     1  UNL1        0.1130
     27 C           3.4030   -1.1440    0.0000 C.3     1  UNL1        0.0730
     28 C           6.3671    4.4540    0.0000 C.3     1  UNL1        0.0817
     29 H           7.1962    0.6660    0.0000 H       1  UNL1        0.0388
     30 H           7.7987    1.9725    0.0000 H       1  UNL1        0.0358
     31 H           7.1771    2.3929    0.0000 H       1  UNL1        0.0470
     32 H           7.4040   -0.4540    0.0000 H       1  UNL1        0.0916
     33 H           5.2649    1.7810    0.0000 H       1  UNL1        0.0919
     34 H           8.3910    0.9050    0.0000 H       1  UNL1        0.0593
     35 H           7.5396    0.0678    0.0000 H       1  UNL1        0.0593
     36 H           8.8719    2.2500    0.0000 H       1  UNL1        0.0573
     37 H           9.8829    0.8560    0.0000 H       1  UNL1        0.0598
     38 H           6.0010   -1.0240    0.0000 H       1  UNL1        0.0938
     39 H           9.5966   -1.0272    0.0000 H       1  UNL1        0.2107
     40 H           6.0010   -3.2640    0.0000 H       1  UNL1        0.0671
     41 H           4.5981   -3.4540    0.0000 H       1  UNL1        0.0648
     42 H           3.7320   -2.3340    0.0000 H       1  UNL1        0.0647
     43 H           4.2690   -1.0240    0.0000 H       1  UNL1        0.0647
     44 H           3.8015   -0.6691    0.0000 H       1  UNL1        0.0584
     45 H           3.0044   -0.6691    0.0000 H       1  UNL1        0.0584
     46 H           6.8671   -3.7640    0.0000 H       1  UNL1        0.2101
     47 H           4.5981   -4.4540    0.0000 H       1  UNL1        0.2100
     48 H           3.4030   -3.7640    0.0000 H       1  UNL1        0.2100
     49 H           6.9040    4.7640    0.0000 H       1  UNL1        0.0661
     50 H           6.0571    4.9910    0.0000 H       1  UNL1        0.0661
     51 H           5.8301    4.1440    0.0000 H       1  UNL1        0.0661
     52 H           2.0000   -1.3340    0.0000 H       1  UNL1        0.2095
@<TRIPOS>BOND
     1     1    16    1
     2     1    17    1
     3     2    17    1
     4     2    18    1
     5     3    16    1
     6    22     3    1
     7    14     4    1
     8     4    39    1
     9     5    22    1
    10     5    26    1
    11     6    21    1
    12     6    28    1
    13     7    21    2
    14    23     8    1
    15     8    46    1
    16    24     9    1
    17     9    47    1
    18    25    10    1
    19    10    48    1
    20    11    27    1
    21    11    52    1
    22    12    13    1
    23    12    14    1
    24    12    16    1
    25    12    29    1
    26    13    15    1
    27    13    19    1
    28    13    30    1
    29    14    18    1
    30    14    20    1
    31    15    17    1
    32    15    21    1
    33    15    31    1
    34    16    32    1
    35    17    33    1
    36    18    34    1
    37    18    35    1
    38    19    20    2
    39    19    36    1
    40    20    37    1
    41    22    23    1
    42    22    38    1
    43    23    24    1
    44    23    40    1
    45    24    25    1
    46    24    41    1
    47    25    26    1
    48    25    42    1
    49    26    27    1
    50    26    43    1
    51    27    44    1
    52    27    45    1
    53    28    49    1
    54    28    50    1
    55    28    51    1
