@<TRIPOS>MOLECULE
IMPHY004458
 126 128 0 0 0
SMALL
GASTEIGER

@<TRIPOS>ATOM
      1 O           7.7331   -6.3450    0.0000 O.3     1  UNL1       -0.3405
      2 O           9.4651   -6.3450    0.0000 O.3     1  UNL1       -0.3452
      3 O           6.0010   -5.3450    0.0000 O.3     1  UNL1       -0.3461
      4 O           4.2690   -5.3450    0.0000 O.3     1  UNL1       -0.3431
      5 O           6.0010   -8.3450    0.0000 O.3     1  UNL1       -0.3865
      6 O           7.7331   -9.3450    0.0000 O.3     1  UNL1       -0.3864
      7 O           9.4651   -8.3450    0.0000 O.3     1  UNL1       -0.3841
      8 O          13.7953    8.1550    0.0000 O.3     1  UNL1       -0.4613
      9 O           6.0010   -3.3450    0.0000 O.3     1  UNL1       -0.3841
     10 O           4.2690   -2.3450    0.0000 O.3     1  UNL1       -0.3864
     11 O           2.5369   -3.3450    0.0000 O.3     1  UNL1       -0.3866
     12 O          14.6613    9.6550    0.0000 O.2     1  UNL1       -0.2508
     13 C           6.8671   -6.8450    0.0000 C.3     1  UNL1        0.1134
     14 C           6.8671   -7.8450    0.0000 C.3     1  UNL1        0.1119
     15 C           7.7331   -8.3450    0.0000 C.3     1  UNL1        0.1141
     16 C           8.5991   -6.8450    0.0000 C.3     1  UNL1        0.1882
     17 C           8.5991   -7.8450    0.0000 C.3     1  UNL1        0.1341
     18 C           9.4651   -5.3450    0.0000 C.3     1  UNL1        0.0643
     19 C          10.3312   -4.8450    0.0000 C.3     1  UNL1       -0.0177
     20 C           6.0010   -6.3450    0.0000 C.3     1  UNL1        0.0796
     21 C           8.5991   -4.8450    0.0000 C.3     1  UNL1       -0.0262
     22 C           5.1350   -4.8450    0.0000 C.3     1  UNL1        0.1879
     23 C           5.1350   -3.8450    0.0000 C.3     1  UNL1        0.1341
     24 C           4.2690   -3.3450    0.0000 C.3     1  UNL1        0.1140
     25 C           8.5991   -3.8450    0.0000 C.3     1  UNL1       -0.0507
     26 C          15.5273    7.1550    0.0000 C.3     1  UNL1       -0.0279
     27 C           3.4030   -3.8450    0.0000 C.3     1  UNL1        0.1095
     28 C          14.6613    6.6550    0.0000 C.3     1  UNL1       -0.0123
     29 C          13.7953    7.1550    0.0000 C.3     1  UNL1        0.1033
     30 C           3.4030   -4.8450    0.0000 C.3     1  UNL1        0.0873
     31 C          10.3312   -3.8450    0.0000 C.3     1  UNL1       -0.0510
     32 C           7.7331   -3.3450    0.0000 C.3     1  UNL1       -0.0530
     33 C          11.1972   -5.3450    0.0000 C.3     1  UNL1       -0.0601
     34 C          12.9292    6.6550    0.0000 C.3     1  UNL1       -0.0157
     35 C          15.5273    8.1550    0.0000 C.3     1  UNL1        0.0479
     36 C           7.7331   -2.3450    0.0000 C.3     1  UNL1       -0.0531
     37 C          16.3933    6.6550    0.0000 C.3     1  UNL1       -0.0524
     38 C          12.9292    5.6550    0.0000 C.3     1  UNL1       -0.0497
     39 C           8.5991   -1.8450    0.0000 C.3     1  UNL1       -0.0531
     40 C          12.0632    5.1550    0.0000 C.3     1  UNL1       -0.0529
     41 C           2.5369   -5.3450    0.0000 C.3     1  UNL1       -0.0361
     42 C          11.1972   -3.3450    0.0000 C.3     1  UNL1       -0.0650
     43 C          14.6613    8.6550    0.0000 C.2     1  UNL1        0.3076
     44 C          12.0632    4.1550    0.0000 C.3     1  UNL1       -0.0531
     45 C           8.5991   -0.8450    0.0000 C.3     1  UNL1       -0.0531
     46 C          11.1972    3.6550    0.0000 C.3     1  UNL1       -0.0531
     47 C           9.4651   -0.3450    0.0000 C.3     1  UNL1       -0.0531
     48 C          11.1972    2.6550    0.0000 C.3     1  UNL1       -0.0531
     49 C           9.4651    0.6550    0.0000 C.3     1  UNL1       -0.0531
     50 C          17.2594    7.1550    0.0000 C.3     1  UNL1       -0.0650
     51 C          10.3312    2.1550    0.0000 C.3     1  UNL1       -0.0531
     52 C          10.3312    1.1550    0.0000 C.3     1  UNL1       -0.0531
     53 H           6.8671   -6.2250    0.0000 H       1  UNL1        0.0647
     54 H           6.8671   -8.4650    0.0000 H       1  UNL1        0.0647
     55 H           8.2700   -8.6550    0.0000 H       1  UNL1        0.0648
     56 H           8.5991   -6.2250    0.0000 H       1  UNL1        0.0937
     57 H           9.1360   -7.5350    0.0000 H       1  UNL1        0.0671
     58 H          10.2013   -5.7700    0.0000 H       1  UNL1        0.0599
     59 H          11.0673   -4.4200    0.0000 H       1  UNL1        0.0323
     60 H           5.3905   -6.2373    0.0000 H       1  UNL1        0.0587
     61 H           5.7890   -6.9276    0.0000 H       1  UNL1        0.0587
     62 H           7.9885   -4.7373    0.0000 H       1  UNL1        0.0290
     63 H           8.3871   -5.4276    0.0000 H       1  UNL1        0.0290
     64 H           5.6720   -4.5350    0.0000 H       1  UNL1        0.0937
     65 H           5.1350   -3.2250    0.0000 H       1  UNL1        0.0671
     66 H           3.7320   -3.0350    0.0000 H       1  UNL1        0.0648
     67 H           9.2097   -3.9527    0.0000 H       1  UNL1        0.0266
     68 H           8.8112   -3.2624    0.0000 H       1  UNL1        0.0266
     69 H          15.5273    6.3050    0.0000 H       1  UNL1        0.0307
     70 H           3.9650   -3.2250    0.0000 H       1  UNL1        0.0646
     71 H          14.2628    6.1800    0.0000 H       1  UNL1        0.0304
     72 H          15.0598    6.1800    0.0000 H       1  UNL1        0.0304
     73 H          13.0591    7.5800    0.0000 H       1  UNL1        0.0734
     74 H           3.4030   -5.4650    0.0000 H       1  UNL1        0.0621
     75 H          10.1191   -3.2624    0.0000 H       1  UNL1        0.0266
     76 H           9.7206   -3.9527    0.0000 H       1  UNL1        0.0266
     77 H           7.1225   -3.2373    0.0000 H       1  UNL1        0.0265
     78 H           7.5210   -3.9276    0.0000 H       1  UNL1        0.0265
     79 H          10.8872   -5.8819    0.0000 H       1  UNL1        0.0233
     80 H          11.7341   -5.6550    0.0000 H       1  UNL1        0.0233
     81 H          11.5072   -4.8081    0.0000 H       1  UNL1        0.0233
     82 H          12.7172    7.2376    0.0000 H       1  UNL1        0.0301
     83 H          12.3187    6.5473    0.0000 H       1  UNL1        0.0301
     84 H          16.1379    8.0473    0.0000 H       1  UNL1        0.0380
     85 H          15.7394    8.7376    0.0000 H       1  UNL1        0.0380
     86 H           5.4641   -8.0350    0.0000 H       1  UNL1        0.2100
     87 H           7.1962   -9.6550    0.0000 H       1  UNL1        0.2100
     88 H          10.0021   -8.0350    0.0000 H       1  UNL1        0.2101
     89 H           7.5210   -1.7624    0.0000 H       1  UNL1        0.0265
     90 H           7.1225   -2.4527    0.0000 H       1  UNL1        0.0265
     91 H          15.9948    6.1800    0.0000 H       1  UNL1        0.0265
     92 H          16.7919    6.1800    0.0000 H       1  UNL1        0.0265
     93 H          13.1413    5.0724    0.0000 H       1  UNL1        0.0266
     94 H          13.5398    5.7627    0.0000 H       1  UNL1        0.0266
     95 H           8.8112   -2.4276    0.0000 H       1  UNL1        0.0265
     96 H           9.2097   -1.7373    0.0000 H       1  UNL1        0.0265
     97 H          11.8512    5.7376    0.0000 H       1  UNL1        0.0265
     98 H          11.4526    5.0473    0.0000 H       1  UNL1        0.0265
     99 H           2.2269   -4.8081    0.0000 H       1  UNL1        0.0255
    100 H           2.0000   -5.6550    0.0000 H       1  UNL1        0.0255
    101 H           2.8469   -5.8819    0.0000 H       1  UNL1        0.0255
    102 H          11.5072   -3.8819    0.0000 H       1  UNL1        0.0230
    103 H          11.7341   -3.0350    0.0000 H       1  UNL1        0.0230
    104 H          10.8872   -2.8081    0.0000 H       1  UNL1        0.0230
    105 H          12.2753    3.5724    0.0000 H       1  UNL1        0.0265
    106 H          12.6738    4.2627    0.0000 H       1  UNL1        0.0265
    107 H           8.3871   -0.2624    0.0000 H       1  UNL1        0.0265
    108 H           7.9885   -0.9527    0.0000 H       1  UNL1        0.0265
    109 H          10.9851    4.2376    0.0000 H       1  UNL1        0.0265
    110 H          10.5866    3.5473    0.0000 H       1  UNL1        0.0265
    111 H           9.6772   -0.9276    0.0000 H       1  UNL1        0.0265
    112 H          10.0757   -0.2373    0.0000 H       1  UNL1        0.0265
    113 H           6.0010   -2.7250    0.0000 H       1  UNL1        0.2101
    114 H           3.7320   -2.0350    0.0000 H       1  UNL1        0.2100
    115 H          11.4092    2.0724    0.0000 H       1  UNL1        0.0265
    116 H          11.8078    2.7627    0.0000 H       1  UNL1        0.0265
    117 H           9.2531    1.2376    0.0000 H       1  UNL1        0.0265
    118 H           8.8546    0.5473    0.0000 H       1  UNL1        0.0265
    119 H           2.0000   -3.6550    0.0000 H       1  UNL1        0.2100
    120 H          17.5694    6.6181    0.0000 H       1  UNL1        0.0230
    121 H          17.7963    7.4650    0.0000 H       1  UNL1        0.0230
    122 H          16.9494    7.6919    0.0000 H       1  UNL1        0.0230
    123 H          10.1191    2.7376    0.0000 H       1  UNL1        0.0265
    124 H           9.7206    2.0473    0.0000 H       1  UNL1        0.0265
    125 H          10.5432    0.5724    0.0000 H       1  UNL1        0.0265
    126 H          10.9417    1.2627    0.0000 H       1  UNL1        0.0265
@<TRIPOS>BOND
     1     1    13    1
     2     1    16    1
     3    16     2    1
     4     2    18    1
     5     3    20    1
     6    22     3    1
     7     4    22    1
     8     4    30    1
     9    14     5    1
    10     5    86    1
    11    15     6    1
    12     6    87    1
    13    17     7    1
    14     7    88    1
    15     8    29    1
    16     8    43    1
    17    23     9    1
    18     9   113    1
    19    24    10    1
    20    10   114    1
    21    27    11    1
    22    11   119    1
    23    12    43    2
    24    13    14    1
    25    13    20    1
    26    13    53    1
    27    14    15    1
    28    14    54    1
    29    15    17    1
    30    15    55    1
    31    16    17    1
    32    16    56    1
    33    17    57    1
    34    18    19    1
    35    18    21    1
    36    18    58    1
    37    19    31    1
    38    19    33    1
    39    19    59    1
    40    20    60    1
    41    20    61    1
    42    21    25    1
    43    21    62    1
    44    21    63    1
    45    22    23    1
    46    22    64    1
    47    23    24    1
    48    23    65    1
    49    24    27    1
    50    24    66    1
    51    25    32    1
    52    25    67    1
    53    25    68    1
    54    26    28    1
    55    26    35    1
    56    26    37    1
    57    26    69    1
    58    27    30    1
    59    27    70    1
    60    28    29    1
    61    28    71    1
    62    28    72    1
    63    29    34    1
    64    29    73    1
    65    30    41    1
    66    30    74    1
    67    31    42    1
    68    31    75    1
    69    31    76    1
    70    32    36    1
    71    32    77    1
    72    32    78    1
    73    33    79    1
    74    33    80    1
    75    33    81    1
    76    34    38    1
    77    34    82    1
    78    34    83    1
    79    35    43    1
    80    35    84    1
    81    35    85    1
    82    36    39    1
    83    36    89    1
    84    36    90    1
    85    37    50    1
    86    37    91    1
    87    37    92    1
    88    38    40    1
    89    38    93    1
    90    38    94    1
    91    39    45    1
    92    39    95    1
    93    39    96    1
    94    40    44    1
    95    40    97    1
    96    40    98    1
    97    41    99    1
    98    41   100    1
    99    41   101    1
   100    42   102    1
   101    42   103    1
   102    42   104    1
   103    44    46    1
   104    44   105    1
   105    44   106    1
   106    45    47    1
   107    45   107    1
   108    45   108    1
   109    46    48    1
   110    46   109    1
   111    46   110    1
   112    47    49    1
   113    47   111    1
   114    47   112    1
   115    48    51    1
   116    48   115    1
   117    48   116    1
   118    49    52    1
   119    49   117    1
   120    49   118    1
   121    50   120    1
   122    50   121    1
   123    50   122    1
   124    51    52    1
   125    51   123    1
   126    51   124    1
   127    52   125    1
   128    52   126    1
