@<TRIPOS>MOLECULE
IMPHY001974
 77 80 0 0 0
SMALL
GASTEIGER

@<TRIPOS>ATOM
      1 O           7.9506   -3.6389    0.0000 O.2     1  UNL1       -0.2924
      2 O           2.5357   -3.6598    0.0000 O.3     1  UNL1       -0.3915
      3 C           7.9288   -0.6074    0.0000 C.3     1  UNL1       -0.0252
      4 C           7.9288   -1.6074    0.0000 C.3     1  UNL1       -0.0252
      5 C           7.0628   -2.1074    0.0000 C.3     1  UNL1        0.0285
      6 C           6.1968   -1.6074    0.0000 C.3     1  UNL1       -0.0218
      7 C           8.8750   -0.3027    0.0000 C.3     1  UNL1       -0.0293
      8 C           7.0628   -0.1074    0.0000 C.3     1  UNL1       -0.0468
      9 C           8.8750   -1.9122    0.0000 C.3     1  UNL1       -0.0488
     10 C           5.2868   -2.1143    0.0000 C.3     1  UNL1       -0.0070
     11 C           6.1968   -0.6074    0.0000 C.3     1  UNL1       -0.0483
     12 C           9.4586   -1.1074    0.0000 C.3     1  UNL1       -0.0489
     13 C           7.9288    0.3926    0.0000 C.3     1  UNL1       -0.0590
     14 C           9.1857    0.6478    0.0000 C.3     1  UNL1       -0.0224
     15 C           5.2787   -3.1559    0.0000 C.2     1  UNL1       -0.0576
     16 C           7.0789   -3.1489    0.0000 C.2     1  UNL1        0.1597
     17 C           4.3599   -1.5502    0.0000 C.3     1  UNL1       -0.0413
     18 C           5.2945   -1.1143    0.0000 C.3     1  UNL1       -0.0556
     19 C           6.1808   -3.6767    0.0000 C.2     1  UNL1       -0.0191
     20 C           4.3433   -3.7056    0.0000 C.3     1  UNL1       -0.0047
     21 C           3.4120   -2.0781    0.0000 C.3     1  UNL1       -0.0258
     22 C           3.4037   -3.1631    0.0000 C.3     1  UNL1        0.0590
     23 C           8.5179    1.3921    0.0000 C.3     1  UNL1       -0.0587
     24 C          10.1642    0.8540    0.0000 C.2     1  UNL1       -0.0845
     25 C          10.4749    1.8046    0.0000 C.2     1  UNL1       -0.0843
     26 C          11.4534    2.0108    0.0000 C.3     1  UNL1       -0.0208
     27 C          11.7640    2.9613    0.0000 C.3     1  UNL1       -0.0405
     28 C          12.1212    1.2665    0.0000 C.3     1  UNL1       -0.0494
     29 C          12.7425    3.1675    0.0000 C.3     1  UNL1       -0.0621
     30 C          11.0962    3.7056    0.0000 C.3     1  UNL1       -0.0621
     31 C          13.0997    1.4727    0.0000 C.3     1  UNL1       -0.0647
     32 H           8.0188   -2.4527    0.0000 H       1  UNL1        0.0313
     33 H           7.8022   -2.5267    0.0000 H       1  UNL1        0.0386
     34 H           6.9329   -1.1824    0.0000 H       1  UNL1        0.0316
     35 H           9.7148   -0.1708    0.0000 H       1  UNL1        0.0312
     36 H           7.4613    0.3675    0.0000 H       1  UNL1        0.0271
     37 H           6.6643    0.3675    0.0000 H       1  UNL1        0.0271
     38 H           8.6240   -2.4791    0.0000 H       1  UNL1        0.0268
     39 H           9.4124   -2.2214    0.0000 H       1  UNL1        0.0268
     40 H           5.9847   -0.0248    0.0000 H       1  UNL1        0.0269
     41 H           5.5862   -0.7151    0.0000 H       1  UNL1        0.0269
     42 H           9.9195   -1.5222    0.0000 H       1  UNL1        0.0268
     43 H           9.9195   -0.6927    0.0000 H       1  UNL1        0.0268
     44 H           8.5488    0.3926    0.0000 H       1  UNL1        0.0235
     45 H           7.9288    1.0126    0.0000 H       1  UNL1        0.0235
     46 H           7.3088    0.3926    0.0000 H       1  UNL1        0.0235
     47 H           9.3783    1.2371    0.0000 H       1  UNL1        0.0343
     48 H           4.7681   -1.0835    0.0000 H       1  UNL1        0.0274
     49 H           3.9700   -1.0682    0.0000 H       1  UNL1        0.0274
     50 H           5.9145   -1.1191    0.0000 H       1  UNL1        0.0238
     51 H           5.2993   -0.4943    0.0000 H       1  UNL1        0.0238
     52 H           4.6745   -1.1095    0.0000 H       1  UNL1        0.0238
     53 H           6.1832   -4.2967    0.0000 H       1  UNL1        0.0652
     54 H           3.9460   -4.1816    0.0000 H       1  UNL1        0.0335
     55 H           4.7443   -4.1785    0.0000 H       1  UNL1        0.0335
     56 H           3.2075   -1.4929    0.0000 H       1  UNL1        0.0290
     57 H           2.8004   -2.1795    0.0000 H       1  UNL1        0.0290
     58 H           3.4025   -3.7831    0.0000 H       1  UNL1        0.0596
     59 H           8.9793    1.8062    0.0000 H       1  UNL1        0.0235
     60 H           8.1038    1.8536    0.0000 H       1  UNL1        0.0235
     61 H           8.0564    0.9781    0.0000 H       1  UNL1        0.0235
     62 H          10.5783    0.3926    0.0000 H       1  UNL1        0.0572
     63 H          10.0608    2.2660    0.0000 H       1  UNL1        0.0572
     64 H           2.0000   -3.3477    0.0000 H       1  UNL1        0.2098
     65 H          12.3210    1.5493    0.0000 H       1  UNL1        0.0345
     66 H          11.9567    3.5506    0.0000 H       1  UNL1        0.0301
     67 H          11.5949    0.9388    0.0000 H       1  UNL1        0.0268
     68 H          12.3525    0.6912    0.0000 H       1  UNL1        0.0268
     69 H          12.8704    2.5608    0.0000 H       1  UNL1        0.0233
     70 H          13.3492    3.2954    0.0000 H       1  UNL1        0.0233
     71 H          12.6147    3.7742    0.0000 H       1  UNL1        0.0233
     72 H          11.5577    4.1197    0.0000 H       1  UNL1        0.0233
     73 H          10.6821    4.1671    0.0000 H       1  UNL1        0.0233
     74 H          10.6347    3.2915    0.0000 H       1  UNL1        0.0233
     75 H          13.2276    0.8660    0.0000 H       1  UNL1        0.0230
     76 H          13.7064    1.6006    0.0000 H       1  UNL1        0.0230
     77 H          12.9719    2.0794    0.0000 H       1  UNL1        0.0230
@<TRIPOS>BOND
     1     1    16    2
     2    22     2    1
     3     2    64    1
     4     3     4    1
     5     3     7    1
     6     3     8    1
     7     3    13    1
     8     4     5    1
     9     4     9    1
    10     4    32    1
    11     5     6    1
    12     5    16    1
    13     5    33    1
    14     6    10    1
    15     6    11    1
    16     6    34    1
    17     7    12    1
    18     7    14    1
    19     7    35    1
    20     8    11    1
    21     8    36    1
    22     8    37    1
    23     9    12    1
    24     9    38    1
    25     9    39    1
    26    10    15    1
    27    10    17    1
    28    10    18    1
    29    11    40    1
    30    11    41    1
    31    12    42    1
    32    12    43    1
    33    13    44    1
    34    13    45    1
    35    13    46    1
    36    14    23    1
    37    14    24    1
    38    14    47    1
    39    15    19    2
    40    15    20    1
    41    16    19    1
    42    17    21    1
    43    17    48    1
    44    17    49    1
    45    18    50    1
    46    18    51    1
    47    18    52    1
    48    19    53    1
    49    20    22    1
    50    20    54    1
    51    20    55    1
    52    21    22    1
    53    21    56    1
    54    21    57    1
    55    22    58    1
    56    23    59    1
    57    23    60    1
    58    23    61    1
    59    24    25    2
    60    24    62    1
    61    26    25    1
    62    25    63    1
    63    26    27    1
    64    26    28    1
    65    26    65    1
    66    27    29    1
    67    27    30    1
    68    27    66    1
    69    28    31    1
    70    28    67    1
    71    28    68    1
    72    29    69    1
    73    29    70    1
    74    29    71    1
    75    30    72    1
    76    30    73    1
    77    30    74    1
    78    31    75    1
    79    31    76    1
    80    31    77    1
