@<TRIPOS>MOLECULE
IMPHY005163
 86 90 0 0 0
SMALL
GASTEIGER

@<TRIPOS>ATOM
      1 O          10.9848    2.6514    0.0000 O.3     1  UNL1       -0.4610
      2 O           7.8770   -2.3590    0.0000 O.3     1  UNL1       -0.4800
      3 O           6.5109   -2.7250    0.0000 O.2     1  UNL1       -0.2500
      4 O           3.8493   -3.5347    0.0000 O.3     1  UNL1       -0.4802
      5 O           5.5813   -3.5481    0.0000 O.2     1  UNL1       -0.2504
      6 O          10.1130    4.1480    0.0000 O.2     1  UNL1       -0.2512
      7 C           7.3770   -0.4930    0.0000 C.3     1  UNL1       -0.0090
      8 C           8.2709    1.0417    0.0000 C.3     1  UNL1       -0.0249
      9 C           7.3770    0.5070    0.0000 C.3     1  UNL1       -0.0252
     10 C           6.5109   -0.9930    0.0000 C.3     1  UNL1        0.0944
     11 C           9.1770    0.5278    0.0000 C.3     1  UNL1       -0.0268
     12 C           8.2709   -1.0277    0.0000 C.3     1  UNL1       -0.0457
     13 C           9.1770   -0.5138    0.0000 C.3     1  UNL1       -0.0486
     14 C          10.1208    1.0630    0.0000 C.3     1  UNL1        0.0055
     15 C           5.6449   -0.4930    0.0000 C.2     1  UNL1       -0.0519
     16 C           4.7349   -0.9998    0.0000 C.3     1  UNL1       -0.0003
     17 C           6.5109    1.0070    0.0000 C.3     1  UNL1       -0.0306
     18 C           8.2458    2.1264    0.0000 C.3     1  UNL1       -0.0437
     19 C           4.7269   -2.0415    0.0000 C.3     1  UNL1        0.0744
     20 C           6.5270   -2.0345    0.0000 C.3     1  UNL1       -0.0319
     21 C           7.5507   -1.4778    0.0000 C.3     1  UNL1       -0.0580
     22 C          10.1208    2.1480    0.0000 C.3     1  UNL1        0.1084
     23 C           5.6290   -2.5623    0.0000 C.3     1  UNL1       -0.0354
     24 C           7.4010    1.5350    0.0000 C.3     1  UNL1       -0.0590
     25 C           5.6449    0.5070    0.0000 C.2     1  UNL1       -0.0831
     26 C           9.1770    2.6833    0.0000 C.3     1  UNL1       -0.0146
     27 C           3.8081   -0.4358    0.0000 C.3     1  UNL1       -0.0337
     28 C           3.7914   -2.5912    0.0000 C.3     1  UNL1       -0.0364
     29 C           7.0109   -1.8590    0.0000 C.2     1  UNL1        0.3156
     30 C           2.8602   -0.9637    0.0000 C.3     1  UNL1       -0.0407
     31 C          11.1207    1.0592    0.0000 C.3     1  UNL1       -0.0562
     32 C          10.6174    0.1951    0.0000 C.3     1  UNL1       -0.0562
     33 C           2.8518   -2.0487    0.0000 C.3     1  UNL1       -0.0492
     34 C           4.7192   -3.0414    0.0000 C.2     1  UNL1        0.3115
     35 C           3.8273    0.5640    0.0000 C.3     1  UNL1       -0.0616
     36 C           2.0000   -0.4537    0.0000 C.3     1  UNL1       -0.0622
     37 C          10.9810    3.6514    0.0000 C.2     1  UNL1        0.3042
     38 C          11.8451    4.1547    0.0000 C.3     1  UNL1        0.0332
     39 H           8.1163    0.0877    0.0000 H       1  UNL1        0.0315
     40 H           9.9114    0.1000    0.0000 H       1  UNL1        0.0312
     41 H           7.8663   -1.4974    0.0000 H       1  UNL1        0.0271
     42 H           8.6645   -1.5067    0.0000 H       1  UNL1        0.0271
     43 H           9.3860   -1.0975    0.0000 H       1  UNL1        0.0268
     44 H           9.7878   -0.4077    0.0000 H       1  UNL1        0.0268
     45 H           4.7513   -0.1500    0.0000 H       1  UNL1        0.0359
     46 H           6.9095    1.4820    0.0000 H       1  UNL1        0.0310
     47 H           6.1124    1.4820    0.0000 H       1  UNL1        0.0310
     48 H           8.0233    2.7051    0.0000 H       1  UNL1        0.0272
     49 H           7.6376    2.0062    0.0000 H       1  UNL1        0.0272
     50 H           6.7450   -2.6149    0.0000 H       1  UNL1        0.0279
     51 H           7.1361   -1.9190    0.0000 H       1  UNL1        0.0279
     52 H           6.9401   -1.5855    0.0000 H       1  UNL1        0.0236
     53 H           7.6584   -2.0884    0.0000 H       1  UNL1        0.0236
     54 H           8.1613   -1.3701    0.0000 H       1  UNL1        0.0236
     55 H           5.2316   -3.0382    0.0000 H       1  UNL1        0.0276
     56 H           6.0299   -3.0352    0.0000 H       1  UNL1        0.0276
     57 H          10.6583    1.8391    0.0000 H       1  UNL1        0.0739
     58 H           7.7069    2.0743    0.0000 H       1  UNL1        0.0235
     59 H           6.8617    1.8408    0.0000 H       1  UNL1        0.0235
     60 H           7.0952    0.9957    0.0000 H       1  UNL1        0.0235
     61 H           5.1080    0.8170    0.0000 H       1  UNL1        0.0572
     62 H           9.5706    3.1623    0.0000 H       1  UNL1        0.0301
     63 H           8.7724    3.1531    0.0000 H       1  UNL1        0.0301
     64 H           4.3515   -0.1372    0.0000 H       1  UNL1        0.0307
     65 H           3.3942   -3.0671    0.0000 H       1  UNL1        0.0276
     66 H           4.1924   -3.0641    0.0000 H       1  UNL1        0.0276
     67 H           2.8686   -0.3438    0.0000 H       1  UNL1        0.0301
     68 H          11.1184    0.4392    0.0000 H       1  UNL1        0.0236
     69 H          11.7407    1.0568    0.0000 H       1  UNL1        0.0236
     70 H          11.1231    1.6792    0.0000 H       1  UNL1        0.0236
     71 H          10.0793   -0.1128    0.0000 H       1  UNL1        0.0236
     72 H          10.9253   -0.3430    0.0000 H       1  UNL1        0.0236
     73 H          11.1555    0.5030    0.0000 H       1  UNL1        0.0236
     74 H           2.2418   -1.9379    0.0000 H       1  UNL1        0.0268
     75 H           2.6383   -2.6307    0.0000 H       1  UNL1        0.0268
     76 H           4.4472    0.5521    0.0000 H       1  UNL1        0.0233
     77 H           3.8393    1.1839    0.0000 H       1  UNL1        0.0233
     78 H           3.2075    0.5760    0.0000 H       1  UNL1        0.0233
     79 H           2.3162    0.0796    0.0000 H       1  UNL1        0.0233
     80 H           1.4667   -0.1375    0.0000 H       1  UNL1        0.0233
     81 H           1.6838   -0.9870    0.0000 H       1  UNL1        0.0233
     82 H           7.8770   -2.9790    0.0000 H       1  UNL1        0.2951
     83 H           3.8445   -4.1547    0.0000 H       1  UNL1        0.2951
     84 H          12.1572    3.6190    0.0000 H       1  UNL1        0.0342
     85 H          12.3808    4.4668    0.0000 H       1  UNL1        0.0342
     86 H          11.5330    4.6904    0.0000 H       1  UNL1        0.0342
@<TRIPOS>BOND
     1    22     1    1
     2     1    37    1
     3     2    29    1
     4     2    82    1
     5     3    29    2
     6     4    34    1
     7     4    83    1
     8     5    34    2
     9     6    37    2
    10     7     9    1
    11     7    10    1
    12     7    12    1
    13     7    21    1
    14     8     9    1
    15     8    11    1
    16     8    18    1
    17     8    24    1
    18     9    17    1
    19     9    39    1
    20    10    15    1
    21    10    20    1
    22    10    29    1
    23    11    13    1
    24    11    14    1
    25    11    40    1
    26    12    13    1
    27    12    41    1
    28    12    42    1
    29    13    43    1
    30    13    44    1
    31    14    22    1
    32    14    31    1
    33    14    32    1
    34    15    16    1
    35    15    25    2
    36    16    19    1
    37    16    27    1
    38    16    45    1
    39    17    25    1
    40    17    46    1
    41    17    47    1
    42    18    26    1
    43    18    48    1
    44    18    49    1
    45    19    23    1
    46    19    28    1
    47    19    34    1
    48    20    23    1
    49    20    50    1
    50    20    51    1
    51    21    52    1
    52    21    53    1
    53    21    54    1
    54    22    26    1
    55    22    57    1
    56    23    55    1
    57    23    56    1
    58    24    58    1
    59    24    59    1
    60    24    60    1
    61    25    61    1
    62    26    62    1
    63    26    63    1
    64    27    30    1
    65    27    35    1
    66    27    64    1
    67    28    33    1
    68    28    65    1
    69    28    66    1
    70    30    33    1
    71    30    36    1
    72    30    67    1
    73    31    68    1
    74    31    69    1
    75    31    70    1
    76    32    71    1
    77    32    72    1
    78    32    73    1
    79    33    74    1
    80    33    75    1
    81    35    76    1
    82    35    77    1
    83    35    78    1
    84    36    79    1
    85    36    80    1
    86    36    81    1
    87    37    38    1
    88    38    84    1
    89    38    85    1
    90    38    86    1
