@<TRIPOS>MOLECULE
IMPHY005108
 54 58 0 0 0
SMALL
GASTEIGER

@<TRIPOS>ATOM
      1 O           6.3821    0.6766    0.0000 O.2     1  UNL1       -0.4534
      2 O           8.2356    3.7748    0.0000 O.3     1  UNL1       -0.4814
      3 O           3.7578   -2.9743    0.0000 O.3     1  UNL1       -0.5031
      4 O           3.7840    2.1766    0.0000 O.2     1  UNL1       -0.2866
      5 O           7.3403   -0.8689    0.0000 O.3     1  UNL1       -0.5059
      6 O           4.6283    3.7081    0.0000 O.3     1  UNL1       -0.5058
      7 O           5.5692   -4.0201    0.0000 O.3     1  UNL1       -0.5032
      8 C           3.7320   -0.8718    0.0000 C.3     1  UNL1        0.0132
      9 C           3.7401    0.1698    0.0000 C.3     1  UNL1       -0.0098
     10 C           4.6341   -1.3926    0.0000 C.ar    1  UNL1        0.0192
     11 C           4.6501    0.6766    0.0000 C.ar    1  UNL1        0.0439
     12 C           5.5161    0.1766    0.0000 C.ar    1  UNL1        0.1463
     13 C           5.5322   -0.8649    0.0000 C.ar    1  UNL1        0.0665
     14 C           2.8641   -1.3685    0.0000 C.2     1  UNL1       -0.0719
     15 C           4.6501    1.6766    0.0000 C.ar    1  UNL1        0.1998
     16 C           6.3821    1.6766    0.0000 C.ar    1  UNL1        0.1534
     17 C           5.5161    2.1766    0.0000 C.ar    1  UNL1        0.1063
     18 C           4.6258   -2.4776    0.0000 C.ar    1  UNL1        0.1630
     19 C           7.2921    2.1835    0.0000 C.ar    1  UNL1        0.0597
     20 C           6.4841   -1.3855    0.0000 C.ar    1  UNL1        0.1315
     21 C           9.1752    3.2323    0.0000 C.3     1  UNL1        0.1235
     22 C           7.3002    3.2251    0.0000 C.ar    1  UNL1        0.1359
     23 C           5.5000    3.2181    0.0000 C.ar    1  UNL1        0.1347
     24 C           5.5654   -3.0201    0.0000 C.ar    1  UNL1        0.1621
     25 C           8.2190    1.6194    0.0000 C.2     1  UNL1       -0.0478
     26 C           2.0000   -0.8652    0.0000 C.3     1  UNL1       -0.0435
     27 C           6.5008   -2.4704    0.0000 C.ar    1  UNL1        0.0257
     28 C           6.3981    3.7459    0.0000 C.ar    1  UNL1        0.0231
     29 C           9.1668    2.1473    0.0000 C.2     1  UNL1       -0.0408
     30 C          10.1752    3.2284    0.0000 C.3     1  UNL1       -0.0215
     31 C           9.6785    4.0964    0.0000 C.3     1  UNL1       -0.0215
     32 C           2.8602   -2.3685    0.0000 C.2     1  UNL1       -0.0991
     33 H           3.7308   -1.4918    0.0000 H       1  UNL1        0.0398
     34 H           3.5355    0.7551    0.0000 H       1  UNL1        0.0324
     35 H           3.1284    0.0684    0.0000 H       1  UNL1        0.0324
     36 H           8.2070    0.9995    0.0000 H       1  UNL1        0.0624
     37 H           9.7002    1.8311    0.0000 H       1  UNL1        0.0611
     38 H           6.3957    4.3659    0.0000 H       1  UNL1        0.0691
     39 H           2.3121   -0.3294    0.0000 H       1  UNL1        0.0274
     40 H           1.4643   -0.5531    0.0000 H       1  UNL1        0.0274
     41 H           1.6879   -1.4009    0.0000 H       1  UNL1        0.0274
     42 H           7.0413   -2.7742    0.0000 H       1  UNL1        0.0692
     43 H          10.1728    2.6084    0.0000 H       1  UNL1        0.0271
     44 H          10.7952    3.2260    0.0000 H       1  UNL1        0.0271
     45 H          10.1776    3.8484    0.0000 H       1  UNL1        0.0271
     46 H          10.2143    3.7843    0.0000 H       1  UNL1        0.0271
     47 H           9.9906    4.6321    0.0000 H       1  UNL1        0.0271
     48 H           9.1428    4.4084    0.0000 H       1  UNL1        0.0271
     49 H           2.3221   -2.6764    0.0000 H       1  UNL1        0.0534
     50 H           3.3960   -2.6806    0.0000 H       1  UNL1        0.0534
     51 H           3.7554   -3.5943    0.0000 H       1  UNL1        0.2923
     52 H           7.8831   -1.1685    0.0000 H       1  UNL1        0.2922
     53 H           4.6211    4.3280    0.0000 H       1  UNL1        0.2922
     54 H           6.1074   -4.3280    0.0000 H       1  UNL1        0.2923
@<TRIPOS>BOND
     1     1    12   ar
     2     1    16   ar
     3     2    21    1
     4     2    22    1
     5     3    18    1
     6     3    51    1
     7     4    15    2
     8     5    20    1
     9     5    52    1
    10     6    23    1
    11     6    53    1
    12     7    24    1
    13     7    54    1
    14     8     9    1
    15     8    10    1
    16     8    14    1
    17     8    33    1
    18     9    11    1
    19     9    34    1
    20     9    35    1
    21    10    13   ar
    22    10    18   ar
    23    11    12   ar
    24    11    15   ar
    25    12    13    1
    26    13    20   ar
    27    14    26    1
    28    14    32    2
    29    15    17   ar
    30    16    17   ar
    31    16    19   ar
    32    17    23   ar
    33    18    24   ar
    34    19    22   ar
    35    19    25    1
    36    20    27   ar
    37    21    29    1
    38    21    30    1
    39    21    31    1
    40    22    28   ar
    41    23    28   ar
    42    24    27   ar
    43    25    29    2
    44    25    36    1
    45    26    39    1
    46    26    40    1
    47    26    41    1
    48    27    42    1
    49    28    38    1
    50    29    37    1
    51    30    43    1
    52    30    44    1
    53    30    45    1
    54    31    46    1
    55    31    47    1
    56    31    48    1
    57    32    49    1
    58    32    50    1
