@<TRIPOS>MOLECULE
IMPHY006680
 20 20 0 0 0
SMALL
GASTEIGER

@<TRIPOS>ATOM
      1 O           2.5369   -2.3100    0.0000 O.3     1  UNL1       -0.5073
      2 O           4.2690   -3.3100    0.0000 O.co2   1  UNL1       -0.8713
      3 O           6.0010    2.6900    0.0000 O.3     1  UNL1       -0.4775
      4 O           4.2690    2.6900    0.0000 O.2     1  UNL1       -0.2458
      5 C           4.2690   -0.3100    0.0000 C.ar    1  UNL1       -0.0214
      6 C           3.4030   -0.8100    0.0000 C.ar    1  UNL1       -0.0136
      7 C           5.1350   -0.8100    0.0000 C.ar    1  UNL1       -0.0549
      8 C           3.4030   -1.8100    0.0000 C.ar    1  UNL1        0.1098
      9 C           5.1350   -1.8100    0.0000 C.ar    1  UNL1       -0.0655
     10 C           4.2690   -2.3100    0.0000 C.ar    1  UNL1       -0.0656
     11 C           4.2690    0.6900    0.0000 C.2     1  UNL1       -0.0477
     12 C           5.1350    1.1900    0.0000 C.2     1  UNL1        0.0229
     13 C           5.1350    2.1900    0.0000 C.2     1  UNL1        0.3296
     14 H           2.8660   -0.5000    0.0000 H       1  UNL1        0.0660
     15 H           5.6720   -0.5000    0.0000 H       1  UNL1        0.0623
     16 H           5.6720   -2.1200    0.0000 H       1  UNL1        0.0613
     17 H           3.7320    1.0000    0.0000 H       1  UNL1        0.0626
     18 H           5.6720    0.8800    0.0000 H       1  UNL1        0.0689
     19 H           2.0000   -2.0000    0.0000 H       1  UNL1        0.2921
     20 H           6.0010    3.3100    0.0000 H       1  UNL1        0.2954
@<TRIPOS>UNITY_ATOM_ATTR
2 1
charge -1
@<TRIPOS>BOND
     1     1     8    1
     2     1    19    1
     3     2    10    1
     4     3    13    1
     5     3    20    1
     6     4    13    2
     7     5     6   ar
     8     5     7   ar
     9     5    11    1
    10     6     8   ar
    11     6    14    1
    12     7     9   ar
    13     7    15    1
    14     8    10   ar
    15     9    10   ar
    16     9    16    1
    17    11    12    2
    18    11    17    1
    19    12    13    1
    20    12    18    1
