@<TRIPOS>MOLECULE
IMPHY009037
 30 32 0 0 0
SMALL
GASTEIGER

@<TRIPOS>ATOM
      1 O           4.3009    1.0482    0.0000 O.3     1  UNL1       -0.4525
      2 O           2.7696    1.9108    0.0000 O.2     1  UNL1       -0.2449
      3 C           5.5321   -0.3762    0.0000 C.3     1  UNL1        0.0213
      4 C           4.6660    0.1238    0.0000 C.3     1  UNL1        0.1358
      5 C           5.5321   -1.3762    0.0000 C.3     1  UNL1       -0.0388
      6 C           3.8000   -0.3762    0.0000 C.ar    1  UNL1        0.0104
      7 C           4.6660   -1.8762    0.0000 C.3     1  UNL1       -0.0266
      8 C           3.8000   -1.3762    0.0000 C.ar    1  UNL1       -0.0399
      9 C           2.9061    0.1585    0.0000 C.ar    1  UNL1        0.0659
     10 C           6.3981    0.1238    0.0000 C.2     1  UNL1       -0.0728
     11 C           3.3073    1.0677    0.0000 C.2     1  UNL1        0.3402
     12 C           2.9061   -1.9108    0.0000 C.ar    1  UNL1       -0.0582
     13 C           2.0000   -0.3554    0.0000 C.ar    1  UNL1       -0.0474
     14 C           2.0000   -1.3970    0.0000 C.ar    1  UNL1       -0.0607
     15 C           7.2641   -0.3762    0.0000 C.3     1  UNL1       -0.0436
     16 C           6.3981    1.1238    0.0000 C.2     1  UNL1       -0.0993
     17 H           5.5321    0.2438    0.0000 H       1  UNL1        0.0385
     18 H           5.3097    0.6790    0.0000 H       1  UNL1        0.0792
     19 H           5.7441   -1.9588    0.0000 H       1  UNL1        0.0275
     20 H           6.1426   -1.2685    0.0000 H       1  UNL1        0.0275
     21 H           4.2675   -2.3511    0.0000 H       1  UNL1        0.0313
     22 H           5.0646   -2.3511    0.0000 H       1  UNL1        0.0313
     23 H           2.9132   -2.5308    0.0000 H       1  UNL1        0.0620
     24 H           1.4643   -0.0433    0.0000 H       1  UNL1        0.0626
     25 H           1.4643   -1.7090    0.0000 H       1  UNL1        0.0618
     26 H           6.9541   -0.9131    0.0000 H       1  UNL1        0.0274
     27 H           7.8010   -0.6862    0.0000 H       1  UNL1        0.0274
     28 H           7.5741    0.1608    0.0000 H       1  UNL1        0.0274
     29 H           6.9350    1.4338    0.0000 H       1  UNL1        0.0534
     30 H           5.8612    1.4338    0.0000 H       1  UNL1        0.0534
@<TRIPOS>BOND
     1     1     4    1
     2     1    11    1
     3     2    11    2
     4     3     4    1
     5     3     5    1
     6     3    10    1
     7     3    17    1
     8     4     6    1
     9     4    18    1
    10     5     7    1
    11     5    19    1
    12     5    20    1
    13     6     8   ar
    14     6     9   ar
    15     7     8    1
    16     7    21    1
    17     7    22    1
    18     8    12   ar
    19     9    11    1
    20     9    13   ar
    21    10    15    1
    22    10    16    2
    23    12    14   ar
    24    12    23    1
    25    13    14   ar
    26    13    24    1
    27    14    25    1
    28    15    26    1
    29    15    27    1
    30    15    28    1
    31    16    29    1
    32    16    30    1
