@<TRIPOS>MOLECULE
IMPHY013421
 59 62 0 0 0
SMALL
GASTEIGER

@<TRIPOS>ATOM
      1 O           7.2342    0.7675    0.0000 O.2     1  UNL1       -0.4535
      2 O           4.5841   -0.7810    0.0000 O.3     1  UNL1       -0.4791
      3 O           4.6361    2.2675    0.0000 O.2     1  UNL1       -0.2865
      4 O           5.4803    3.7989    0.0000 O.3     1  UNL1       -0.5058
      5 O           9.0201    3.8126    0.0000 O.3     1  UNL1       -0.5062
      6 O           6.4213   -3.9292    0.0000 O.3     1  UNL1       -0.4913
      7 O           8.2246   -2.8695    0.0000 O.3     1  UNL1       -0.5033
      8 C           5.5021    0.7675    0.0000 C.ar    1  UNL1        0.0869
      9 C           4.5921    0.2606    0.0000 C.3     1  UNL1        0.1507
     10 C           6.3682    0.2675    0.0000 C.ar    1  UNL1        0.1499
     11 C           6.3842   -0.7740    0.0000 C.ar    1  UNL1        0.0631
     12 C           6.3682    2.2675    0.0000 C.ar    1  UNL1        0.1062
     13 C           7.2342    1.7675    0.0000 C.ar    1  UNL1        0.1497
     14 C           5.5021    1.7675    0.0000 C.ar    1  UNL1        0.2036
     15 C           5.4862   -1.3018    0.0000 C.ar    1  UNL1        0.1362
     16 C           8.1442    2.2743    0.0000 C.ar    1  UNL1        0.0409
     17 C           3.7319    0.7706    0.0000 C.2     1  UNL1       -0.0406
     18 C           6.3521    3.3090    0.0000 C.ar    1  UNL1        0.1347
     19 C           9.0044    1.7643    0.0000 C.3     1  UNL1       -0.0023
     20 C           7.3361   -1.2947    0.0000 C.ar    1  UNL1       -0.0023
     21 C           8.1522    3.3159    0.0000 C.ar    1  UNL1        0.1273
     22 C           5.4778   -2.3868    0.0000 C.ar    1  UNL1        0.0262
     23 C           7.2501    3.8367    0.0000 C.ar    1  UNL1        0.0225
     24 C           2.8602    0.2807    0.0000 C.2     1  UNL1       -0.0759
     25 C           7.3529   -2.3795    0.0000 C.ar    1  UNL1        0.1594
     26 C           6.4174   -2.9292    0.0000 C.ar    1  UNL1        0.1648
     27 C           9.8761    2.2543    0.0000 C.2     1  UNL1       -0.0807
     28 C           2.0000    0.7906    0.0000 C.3     1  UNL1       -0.0439
     29 C           2.8486   -0.7193    0.0000 C.3     1  UNL1       -0.0439
     30 C          10.7363    1.7443    0.0000 C.2     1  UNL1       -0.0793
     31 C          11.6080    2.2343    0.0000 C.3     1  UNL1       -0.0440
     32 C          10.7247    0.7444    0.0000 C.3     1  UNL1       -0.0440
     33 C           5.5572   -4.4326    0.0000 C.3     1  UNL1        0.0790
     34 H           4.0522   -0.0442    0.0000 H       1  UNL1        0.0833
     35 H           3.7391    1.3906    0.0000 H       1  UNL1        0.0611
     36 H           8.6004    1.2940    0.0000 H       1  UNL1        0.0358
     37 H           9.3974    1.2848    0.0000 H       1  UNL1        0.0358
     38 H           7.8670   -0.9744    0.0000 H       1  UNL1        0.0663
     39 H           4.9397   -2.6947    0.0000 H       1  UNL1        0.0692
     40 H           7.2477    4.4567    0.0000 H       1  UNL1        0.0691
     41 H           9.8833    2.8742    0.0000 H       1  UNL1        0.0575
     42 H           2.3162    1.3240    0.0000 H       1  UNL1        0.0274
     43 H           1.4667    1.1068    0.0000 H       1  UNL1        0.0274
     44 H           1.6838    0.2573    0.0000 H       1  UNL1        0.0274
     45 H           2.2287   -0.7121    0.0000 H       1  UNL1        0.0274
     46 H           2.8414   -1.3392    0.0000 H       1  UNL1        0.0274
     47 H           3.4686   -0.7264    0.0000 H       1  UNL1        0.0274
     48 H           5.4732    4.4189    0.0000 H       1  UNL1        0.2922
     49 H           9.0225    4.4326    0.0000 H       1  UNL1        0.2921
     50 H           8.2318   -3.4894    0.0000 H       1  UNL1        0.2923
     51 H          11.9118    1.6938    0.0000 H       1  UNL1        0.0274
     52 H          12.1485    2.5380    0.0000 H       1  UNL1        0.0274
     53 H          11.3043    2.7748    0.0000 H       1  UNL1        0.0274
     54 H          10.1048    0.7515    0.0000 H       1  UNL1        0.0274
     55 H          10.7176    0.1244    0.0000 H       1  UNL1        0.0274
     56 H          11.3447    0.7372    0.0000 H       1  UNL1        0.0274
     57 H           5.2451   -3.8968    0.0000 H       1  UNL1        0.0660
     58 H           5.0215   -4.7446    0.0000 H       1  UNL1        0.0660
     59 H           5.8693   -4.9683    0.0000 H       1  UNL1        0.0660
@<TRIPOS>BOND
     1     1    10   ar
     2     1    13   ar
     3     2     9    1
     4     2    15    1
     5     3    14    2
     6     4    18    1
     7     4    48    1
     8     5    21    1
     9     5    49    1
    10     6    26    1
    11     6    33    1
    12     7    25    1
    13     7    50    1
    14     8     9    1
    15     8    10   ar
    16     8    14   ar
    17     9    17    1
    18     9    34    1
    19    10    11    1
    20    11    15   ar
    21    11    20   ar
    22    12    13   ar
    23    12    14   ar
    24    12    18   ar
    25    13    16   ar
    26    15    22   ar
    27    16    19    1
    28    16    21   ar
    29    17    24    2
    30    17    35    1
    31    18    23   ar
    32    19    27    1
    33    19    36    1
    34    19    37    1
    35    20    25   ar
    36    20    38    1
    37    21    23   ar
    38    22    26   ar
    39    22    39    1
    40    23    40    1
    41    24    28    1
    42    24    29    1
    43    25    26   ar
    44    27    30    2
    45    27    41    1
    46    28    42    1
    47    28    43    1
    48    28    44    1
    49    29    45    1
    50    29    46    1
    51    29    47    1
    52    30    31    1
    53    30    32    1
    54    31    51    1
    55    31    52    1
    56    31    53    1
    57    32    54    1
    58    32    55    1
    59    32    56    1
    60    33    57    1
    61    33    58    1
    62    33    59    1
