@<TRIPOS>MOLECULE
IMPHY010838
 82 86 0 0 0
SMALL
GASTEIGER

@<TRIPOS>ATOM
      1 O           4.1686   -4.9243    0.0000 O.3     1  UNL1       -0.3912
      2 O           6.4463    5.0552    0.0000 O.3     1  UNL1       -0.3912
      3 C           3.8958   -1.7807    0.0000 C.3     1  UNL1       -0.0253
      4 C           3.8019   -0.7433    0.0000 C.3     1  UNL1       -0.0296
      5 C           2.9010   -0.3094    0.0000 C.3     1  UNL1       -0.0250
      6 C           3.0397   -2.3741    0.0000 C.3     1  UNL1       -0.0278
      7 C           4.8366    2.3413    0.0000 C.3     1  UNL1       -0.0218
      8 C           3.1124   -3.4566    0.0000 C.3     1  UNL1       -0.0056
      9 C           4.3019    1.4474    0.0000 C.3     1  UNL1       -0.0142
     10 C           2.0314   -0.8828    0.0000 C.3     1  UNL1       -0.0468
     11 C           2.1012   -1.9221    0.0000 C.3     1  UNL1       -0.0486
     12 C           4.7029   -0.3094    0.0000 C.3     1  UNL1       -0.0486
     13 C           4.8840   -2.2287    0.0000 C.3     1  UNL1       -0.0447
     14 C           2.6785    0.6655    0.0000 C.3     1  UNL1       -0.0258
     15 C           4.3228    3.2474    0.0000 C.3     1  UNL1       -0.0242
     16 C           4.9254    0.6655    0.0000 C.3     1  UNL1       -0.0457
     17 C           3.3019    1.4474    0.0000 C.2     1  UNL1       -0.0693
     18 C           4.0900   -3.9274    0.0000 C.3     1  UNL1        0.0606
     19 C           4.9817   -3.3093    0.0000 C.3     1  UNL1       -0.0258
     20 C           4.7177   -1.2110    0.0000 C.3     1  UNL1       -0.0590
     21 C           4.8580    4.1912    0.0000 C.3     1  UNL1       -0.0053
     22 C           5.9213    2.3162    0.0000 C.3     1  UNL1       -0.0444
     23 C           2.0000    0.1245    0.0000 C.3     1  UNL1       -0.0590
     24 C           3.2811    3.2474    0.0000 C.3     1  UNL1       -0.0306
     25 C           5.9430    4.1912    0.0000 C.3     1  UNL1        0.0606
     26 C           2.7673    2.3413    0.0000 C.2     1  UNL1       -0.0842
     27 C           6.4782    3.2474    0.0000 C.3     1  UNL1       -0.0258
     28 C           5.3299    1.4714    0.0000 C.3     1  UNL1       -0.0587
     29 C           2.6751   -4.3559    0.0000 C.3     1  UNL1       -0.0572
     30 C           2.1150   -3.5275    0.0000 C.3     1  UNL1       -0.0572
     31 C           4.8541    5.1912    0.0000 C.3     1  UNL1       -0.0572
     32 C           3.9900    4.6878    0.0000 C.3     1  UNL1       -0.0572
     33 H           4.5413   -1.1626    0.0000 H       1  UNL1        0.0311
     34 H           2.3356   -2.8502    0.0000 H       1  UNL1        0.0312
     35 H           5.1500    1.5043    0.0000 H       1  UNL1        0.0351
     36 H           1.7837   -0.3145    0.0000 H       1  UNL1        0.0271
     37 H           1.4290   -1.0296    0.0000 H       1  UNL1        0.0271
     38 H           1.4846   -1.8572    0.0000 H       1  UNL1        0.0268
     39 H           1.9318   -2.5185    0.0000 H       1  UNL1        0.0268
     40 H           4.8409   -0.9139    0.0000 H       1  UNL1        0.0268
     41 H           5.3229   -0.3094    0.0000 H       1  UNL1        0.0268
     42 H           5.5019   -2.2793    0.0000 H       1  UNL1        0.0271
     43 H           5.0396   -1.6286    0.0000 H       1  UNL1        0.0271
     44 H           2.2919    1.1503    0.0000 H       1  UNL1        0.0315
     45 H           2.1198    0.3965    0.0000 H       1  UNL1        0.0315
     46 H           3.8949    3.9818    0.0000 H       1  UNL1        0.0315
     47 H           5.4840    0.3965    0.0000 H       1  UNL1        0.0271
     48 H           5.3120    1.1503    0.0000 H       1  UNL1        0.0271
     49 H           4.6501   -4.1932    0.0000 H       1  UNL1        0.0599
     50 H           5.2425   -3.8718    0.0000 H       1  UNL1        0.0290
     51 H           5.5805   -3.1486    0.0000 H       1  UNL1        0.0290
     52 H           5.0708   -1.7206    0.0000 H       1  UNL1        0.0235
     53 H           5.2272   -0.8578    0.0000 H       1  UNL1        0.0235
     54 H           4.3645   -0.7014    0.0000 H       1  UNL1        0.0235
     55 H           5.8011    1.7080    0.0000 H       1  UNL1        0.0272
     56 H           6.5000    2.0937    0.0000 H       1  UNL1        0.0272
     57 H           2.2690    0.6831    0.0000 H       1  UNL1        0.0235
     58 H           1.4414    0.3935    0.0000 H       1  UNL1        0.0235
     59 H           1.7310   -0.4341    0.0000 H       1  UNL1        0.0235
     60 H           3.3872    3.8582    0.0000 H       1  UNL1        0.0310
     61 H           2.6974    3.4564    0.0000 H       1  UNL1        0.0310
     62 H           5.6340    4.7287    0.0000 H       1  UNL1        0.0599
     63 H           2.1473    2.3341    0.0000 H       1  UNL1        0.0572
     64 H           6.9480    2.8428    0.0000 H       1  UNL1        0.0290
     65 H           6.9572    3.6410    0.0000 H       1  UNL1        0.0290
     66 H           4.7906    1.1656    0.0000 H       1  UNL1        0.0235
     67 H           5.6358    0.9321    0.0000 H       1  UNL1        0.0235
     68 H           5.8692    1.7773    0.0000 H       1  UNL1        0.0235
     69 H           2.1175   -4.0848    0.0000 H       1  UNL1        0.0236
     70 H           2.4039   -4.9135    0.0000 H       1  UNL1        0.0236
     71 H           3.2326   -4.6271    0.0000 H       1  UNL1        0.0236
     72 H           2.0710   -2.9091    0.0000 H       1  UNL1        0.0236
     73 H           1.4965   -3.5715    0.0000 H       1  UNL1        0.0236
     74 H           2.1589   -4.1460    0.0000 H       1  UNL1        0.0236
     75 H           5.4741    5.1935    0.0000 H       1  UNL1        0.0236
     76 H           4.8518    5.8111    0.0000 H       1  UNL1        0.0236
     77 H           4.2341    5.1888    0.0000 H       1  UNL1        0.0236
     78 H           4.2980    5.2259    0.0000 H       1  UNL1        0.0236
     79 H           3.4519    4.9957    0.0000 H       1  UNL1        0.0236
     80 H           3.6821    4.1497    0.0000 H       1  UNL1        0.0236
     81 H           4.7282   -5.1912    0.0000 H       1  UNL1        0.2098
     82 H           7.0663    5.0529    0.0000 H       1  UNL1        0.2098
@<TRIPOS>BOND
     1    18     1    1
     2     1    81    1
     3    25     2    1
     4     2    82    1
     5     3     4    1
     6     3     6    1
     7     3    13    1
     8     3    20    1
     9     4     5    1
    10     4    12    1
    11     4    33    1
    12     5    10    1
    13     5    14    1
    14     5    23    1
    15     6     8    1
    16     6    11    1
    17     6    34    1
    18     7     9    1
    19     7    15    1
    20     7    22    1
    21     7    28    1
    22     8    18    1
    23     8    29    1
    24     8    30    1
    25     9    16    1
    26     9    17    1
    27     9    35    1
    28    10    11    1
    29    10    36    1
    30    10    37    1
    31    11    38    1
    32    11    39    1
    33    12    16    1
    34    12    40    1
    35    12    41    1
    36    13    19    1
    37    13    42    1
    38    13    43    1
    39    14    17    1
    40    14    44    1
    41    14    45    1
    42    15    21    1
    43    15    24    1
    44    15    46    1
    45    16    47    1
    46    16    48    1
    47    17    26    2
    48    18    19    1
    49    18    49    1
    50    19    50    1
    51    19    51    1
    52    20    52    1
    53    20    53    1
    54    20    54    1
    55    21    25    1
    56    21    31    1
    57    21    32    1
    58    22    27    1
    59    22    55    1
    60    22    56    1
    61    23    57    1
    62    23    58    1
    63    23    59    1
    64    24    26    1
    65    24    60    1
    66    24    61    1
    67    25    27    1
    68    25    62    1
    69    26    63    1
    70    27    64    1
    71    27    65    1
    72    28    66    1
    73    28    67    1
    74    28    68    1
    75    29    69    1
    76    29    70    1
    77    29    71    1
    78    30    72    1
    79    30    73    1
    80    30    74    1
    81    31    75    1
    82    31    76    1
    83    31    77    1
    84    32    78    1
    85    32    79    1
    86    32    80    1
