@<TRIPOS>MOLECULE
IMPHY007691
 37 38 0 0 0
SMALL
GASTEIGER

@<TRIPOS>ATOM
      1 O           2.8660   -0.5950    0.0000 O.3     1  UNL1       -0.4939
      2 O           6.3301   -0.5950    0.0000 O.3     1  UNL1       -0.5058
      3 O           4.5981   -3.5950    0.0000 O.3     1  UNL1       -0.5063
      4 O           3.7320    0.9050    0.0000 O.2     1  UNL1       -0.2870
      5 C           4.5981   -0.5950    0.0000 C.ar    1  UNL1        0.1050
      6 C           3.7320   -2.0950    0.0000 C.ar    1  UNL1        0.0335
      7 C           3.7320   -1.0950    0.0000 C.ar    1  UNL1        0.1408
      8 C           5.4641   -1.0950    0.0000 C.ar    1  UNL1        0.1347
      9 C           4.5981   -2.5950    0.0000 C.ar    1  UNL1        0.1267
     10 C           5.4641   -2.0950    0.0000 C.ar    1  UNL1        0.0225
     11 C           4.5981    0.4050    0.0000 C.2     1  UNL1        0.1931
     12 C           2.8660   -2.5950    0.0000 C.3     1  UNL1       -0.0327
     13 C           5.4641    0.9050    0.0000 C.2     1  UNL1       -0.0135
     14 C           6.3301    2.4050    0.0000 C.ar    1  UNL1       -0.0249
     15 C           5.4641    1.9050    0.0000 C.2     1  UNL1       -0.0510
     16 C           2.0000   -1.0950    0.0000 C.3     1  UNL1        0.0788
     17 C           6.3301    3.4050    0.0000 C.ar    1  UNL1       -0.0546
     18 C           7.1962    1.9050    0.0000 C.ar    1  UNL1       -0.0546
     19 C           7.1962    3.9050    0.0000 C.ar    1  UNL1       -0.0612
     20 C           8.0622    2.4050    0.0000 C.ar    1  UNL1       -0.0612
     21 C           8.0622    3.4050    0.0000 C.ar    1  UNL1       -0.0617
     22 H           6.0010   -2.4050    0.0000 H       1  UNL1        0.0691
     23 H           2.5560   -2.0581    0.0000 H       1  UNL1        0.0280
     24 H           2.3291   -2.9050    0.0000 H       1  UNL1        0.0280
     25 H           3.1760   -3.1319    0.0000 H       1  UNL1        0.0280
     26 H           6.0010    0.5950    0.0000 H       1  UNL1        0.0656
     27 H           4.9272    2.2150    0.0000 H       1  UNL1        0.0625
     28 H           6.8671   -0.9050    0.0000 H       1  UNL1        0.2922
     29 H           5.1350   -3.9050    0.0000 H       1  UNL1        0.2921
     30 H           1.6900   -0.5581    0.0000 H       1  UNL1        0.0660
     31 H           1.4631   -1.4050    0.0000 H       1  UNL1        0.0660
     32 H           2.3100   -1.6319    0.0000 H       1  UNL1        0.0660
     33 H           5.7932    3.7150    0.0000 H       1  UNL1        0.0623
     34 H           7.1962    1.2850    0.0000 H       1  UNL1        0.0623
     35 H           7.1962    4.5250    0.0000 H       1  UNL1        0.0618
     36 H           8.5991    2.0950    0.0000 H       1  UNL1        0.0618
     37 H           8.5991    3.7150    0.0000 H       1  UNL1        0.0618
@<TRIPOS>BOND
     1     1     7    1
     2     1    16    1
     3     2     8    1
     4     2    28    1
     5     3     9    1
     6     3    29    1
     7     4    11    2
     8     5     7   ar
     9     5     8   ar
    10     5    11    1
    11     6     7   ar
    12     6     9   ar
    13     6    12    1
    14     8    10   ar
    15     9    10   ar
    16    10    22    1
    17    11    13    1
    18    12    23    1
    19    12    24    1
    20    12    25    1
    21    13    15    2
    22    13    26    1
    23    14    15    1
    24    14    17   ar
    25    14    18   ar
    26    15    27    1
    27    16    30    1
    28    16    31    1
    29    16    32    1
    30    17    19   ar
    31    17    33    1
    32    18    20   ar
    33    18    34    1
    34    19    21   ar
    35    19    35    1
    36    20    21   ar
    37    20    36    1
    38    21    37    1
