@<TRIPOS>MOLECULE
IMPHY015339
 42 42 0 0 0
SMALL
GASTEIGER

@<TRIPOS>ATOM
      1 O           7.8916   -0.7831    0.0000 O.3     1  UNL1       -0.3657
      2 O           5.5963    1.1429    0.0000 O.2     1  UNL1       -0.2922
      3 O           3.9021    1.5030    0.0000 O.2     1  UNL1       -0.5107
      4 C           7.0826   -0.1953    0.0000 C.3     1  UNL1        0.0694
      5 C           8.7006   -0.1953    0.0000 C.3     1  UNL1        0.0850
      6 C           7.3916    0.7557    0.0000 C.3     1  UNL1       -0.0230
      7 C           8.3916    0.7557    0.0000 C.3     1  UNL1       -0.0180
      8 C           6.1316   -0.5044    0.0000 C.3     1  UNL1        0.0450
      9 C           9.6517    0.1137    0.0000 C.3     1  UNL1       -0.0322
     10 C           9.2884   -1.0044    0.0000 C.2     1  UNL1       -0.0600
     11 C           5.9236   -1.4825    0.0000 C.3     1  UNL1       -0.0530
     12 C           5.3884    0.1648    0.0000 C.2     1  UNL1        0.1645
     13 C           4.4374   -0.1442    0.0000 C.2     1  UNL1        0.0186
     14 C           8.8817   -1.9179    0.0000 C.2     1  UNL1       -0.1000
     15 C           3.6942    0.5249    0.0000 C.2     1  UNL1        0.0999
     16 C           2.7431    0.2159    0.0000 C.3     1  UNL1        0.0108
     17 C           2.0000    0.8850    0.0000 C.3     1  UNL1       -0.0558
     18 C           2.5352   -0.7623    0.0000 C.3     1  UNL1       -0.0558
     19 H           6.9856   -0.8077    0.0000 H       1  UNL1        0.0603
     20 H           7.4564    1.3723    0.0000 H       1  UNL1        0.0291
     21 H           6.7852    0.8846    0.0000 H       1  UNL1        0.0291
     22 H           8.9981    0.8846    0.0000 H       1  UNL1        0.0297
     23 H           8.3268    1.3723    0.0000 H       1  UNL1        0.0297
     24 H           5.5419   -0.6959    0.0000 H       1  UNL1        0.0403
     25 H           9.8433   -0.4760    0.0000 H       1  UNL1        0.0260
     26 H          10.2413    0.3053    0.0000 H       1  UNL1        0.0260
     27 H           9.4601    0.7033    0.0000 H       1  UNL1        0.0260
     28 H           9.9050   -0.9395    0.0000 H       1  UNL1        0.0594
     29 H           5.3172   -1.3536    0.0000 H       1  UNL1        0.0237
     30 H           5.7947   -2.0890    0.0000 H       1  UNL1        0.0237
     31 H           6.5301   -1.6114    0.0000 H       1  UNL1        0.0237
     32 H           4.3084   -0.7507    0.0000 H       1  UNL1        0.0686
     33 H           8.2651   -1.9827    0.0000 H       1  UNL1        0.0533
     34 H           9.2461   -2.4195    0.0000 H       1  UNL1        0.0533
     35 H           3.2039   -0.1990    0.0000 H       1  UNL1        0.0374
     36 H           2.4149    1.3458    0.0000 H       1  UNL1        0.0236
     37 H           1.5392    1.2999    0.0000 H       1  UNL1        0.0236
     38 H           1.5851    0.4243    0.0000 H       1  UNL1        0.0236
     39 H           1.9288   -0.6334    0.0000 H       1  UNL1        0.0236
     40 H           2.4063   -1.3687    0.0000 H       1  UNL1        0.0236
     41 H           3.1417   -0.8912    0.0000 H       1  UNL1        0.0236
     42 H           3.4414    1.9179    0.0000 H       1  UNL1        0.2917
@<TRIPOS>BOND
     1     1     4    1
     2     1     5    1
     3     2    12    2
     4     3    15    1
     5     3    42    1
     6     4     6    1
     7     4     8    1
     8     4    19    1
     9     5     7    1
    10     5     9    1
    11     5    10    1
    12     6     7    1
    13     6    20    1
    14     6    21    1
    15     7    22    1
    16     7    23    1
    17     8    11    1
    18     8    12    1
    19     8    24    1
    20     9    25    1
    21     9    26    1
    22     9    27    1
    23    10    14    2
    24    10    28    1
    25    11    29    1
    26    11    30    1
    27    11    31    1
    28    12    13    1
    29    13    15    2
    30    13    32    1
    31    14    33    1
    32    14    34    1
    33    15    16    1
    34    16    17    1
    35    16    18    1
    36    16    35    1
    37    17    36    1
    38    17    37    1
    39    17    38    1
    40    18    39    1
    41    18    40    1
    42    18    41    1
