@<TRIPOS>MOLECULE
IMPHY005066
 39 38 0 0 0
SMALL
GASTEIGER

@<TRIPOS>ATOM
      1 O           2.8660    1.2500    0.0000 O.2     1  UNL1       -0.2977
      2 C           8.0622    0.2500    0.0000 C.3     1  UNL1       -0.0281
      3 C           9.7942    0.2500    0.0000 C.3     1  UNL1       -0.0258
      4 C           7.1962   -0.2500    0.0000 C.3     1  UNL1       -0.0283
      5 C           8.9282   -0.2500    0.0000 C.2     1  UNL1       -0.0737
      6 C           6.3301    0.2500    0.0000 C.2     1  UNL1       -0.0762
      7 C          10.6603   -0.2500    0.0000 C.3     1  UNL1       -0.0590
      8 C           9.7942    1.2500    0.0000 C.3     1  UNL1       -0.0590
      9 C           5.4641   -0.2500    0.0000 C.2     1  UNL1       -0.0846
     10 C           4.5981    0.2500    0.0000 C.3     1  UNL1       -0.0279
     11 C           6.3301    1.2500    0.0000 C.3     1  UNL1       -0.0438
     12 C           3.7320   -0.2500    0.0000 C.3     1  UNL1        0.0090
     13 C           8.9282   -1.2500    0.0000 C.2     1  UNL1       -0.0992
     14 C           2.8660    0.2500    0.0000 C.2     1  UNL1        0.1306
     15 C           2.0000   -0.2500    0.0000 C.3     1  UNL1       -0.0061
     16 H           8.4607    0.7249    0.0000 H       1  UNL1        0.0313
     17 H           7.6636    0.7249    0.0000 H       1  UNL1        0.0313
     18 H           9.2573    0.5600    0.0000 H       1  UNL1        0.0340
     19 H           6.7976   -0.7249    0.0000 H       1  UNL1        0.0313
     20 H           7.5947   -0.7249    0.0000 H       1  UNL1        0.0313
     21 H          10.3503   -0.7869    0.0000 H       1  UNL1        0.0235
     22 H          11.1972   -0.5600    0.0000 H       1  UNL1        0.0235
     23 H          10.9703    0.2869    0.0000 H       1  UNL1        0.0235
     24 H          10.4142    1.2500    0.0000 H       1  UNL1        0.0235
     25 H           9.7942    1.8700    0.0000 H       1  UNL1        0.0235
     26 H           9.1742    1.2500    0.0000 H       1  UNL1        0.0235
     27 H           5.4641   -0.8700    0.0000 H       1  UNL1        0.0572
     28 H           4.9966    0.7249    0.0000 H       1  UNL1        0.0311
     29 H           4.1996    0.7249    0.0000 H       1  UNL1        0.0311
     30 H           6.9501    1.2500    0.0000 H       1  UNL1        0.0274
     31 H           6.3301    1.8700    0.0000 H       1  UNL1        0.0274
     32 H           5.7101    1.2500    0.0000 H       1  UNL1        0.0274
     33 H           3.3335   -0.7249    0.0000 H       1  UNL1        0.0344
     34 H           4.1306   -0.7249    0.0000 H       1  UNL1        0.0344
     35 H           8.3913   -1.5600    0.0000 H       1  UNL1        0.0534
     36 H           9.4651   -1.5600    0.0000 H       1  UNL1        0.0534
     37 H           1.6900    0.2869    0.0000 H       1  UNL1        0.0306
     38 H           1.4631   -0.5600    0.0000 H       1  UNL1        0.0306
     39 H           2.3100   -0.7869    0.0000 H       1  UNL1        0.0306
@<TRIPOS>BOND
     1     1    14    2
     2     2     4    1
     3     2     5    1
     4     2    16    1
     5     2    17    1
     6     3     5    1
     7     3     7    1
     8     3     8    1
     9     3    18    1
    10     4     6    1
    11     4    19    1
    12     4    20    1
    13     5    13    2
    14     6     9    2
    15     6    11    1
    16     7    21    1
    17     7    22    1
    18     7    23    1
    19     8    24    1
    20     8    25    1
    21     8    26    1
    22     9    10    1
    23     9    27    1
    24    10    12    1
    25    10    28    1
    26    10    29    1
    27    11    30    1
    28    11    31    1
    29    11    32    1
    30    12    14    1
    31    12    33    1
    32    12    34    1
    33    13    35    1
    34    13    36    1
    35    14    15    1
    36    15    37    1
    37    15    38    1
    38    15    39    1
