@<TRIPOS>MOLECULE
IMPHY005468
 27 29 0 0 0
SMALL
GASTEIGER

@<TRIPOS>ATOM
      1 O           5.5301   -1.3533    0.0000 O.2     1  UNL1       -0.4542
      2 O           5.5301    1.6467    0.0000 O.2     1  UNL1       -0.2863
      3 O           7.2785    1.6813    0.0000 O.3     1  UNL1       -0.5058
      4 O           2.0000    0.6708    0.0000 O.3     1  UNL1       -0.5033
      5 O           2.0000   -1.3775    0.0000 O.3     1  UNL1       -0.5032
      6 O           9.0602   -1.3775    0.0000 O.3     1  UNL1       -0.5065
      7 C           6.3961    0.1467    0.0000 C.ar    1  UNL1        0.1061
      8 C           4.6641    0.1467    0.0000 C.ar    1  UNL1        0.0684
      9 C           6.3961   -0.8533    0.0000 C.ar    1  UNL1        0.1463
     10 C           4.6641   -0.8533    0.0000 C.ar    1  UNL1        0.1430
     11 C           5.5301    0.6467    0.0000 C.ar    1  UNL1        0.2038
     12 C           7.2901    0.6813    0.0000 C.ar    1  UNL1        0.1347
     13 C           3.7702    0.6813    0.0000 C.ar    1  UNL1       -0.0022
     14 C           3.7702   -1.3880    0.0000 C.ar    1  UNL1        0.0265
     15 C           7.2901   -1.3880    0.0000 C.ar    1  UNL1        0.0231
     16 C           2.8641    0.1675    0.0000 C.ar    1  UNL1        0.1591
     17 C           2.8641   -0.8741    0.0000 C.ar    1  UNL1        0.1618
     18 C           8.1962    0.1675    0.0000 C.ar    1  UNL1        0.0223
     19 C           8.1962   -0.8741    0.0000 C.ar    1  UNL1        0.1239
     20 H           3.7773    1.3013    0.0000 H       1  UNL1        0.0663
     21 H           3.7773   -2.0079    0.0000 H       1  UNL1        0.0692
     22 H           7.2829   -2.0079    0.0000 H       1  UNL1        0.0691
     23 H           8.7319    0.4796    0.0000 H       1  UNL1        0.0691
     24 H           7.8118    1.9975    0.0000 H       1  UNL1        0.2922
     25 H           2.0024    1.2908    0.0000 H       1  UNL1        0.2923
     26 H           2.0024   -1.9975    0.0000 H       1  UNL1        0.2923
     27 H           9.5984   -1.0695    0.0000 H       1  UNL1        0.2921
@<TRIPOS>BOND
     1     1     9   ar
     2     1    10   ar
     3     2    11    2
     4     3    12    1
     5     3    24    1
     6     4    16    1
     7     4    25    1
     8     5    17    1
     9     5    26    1
    10     6    19    1
    11     6    27    1
    12     7     9   ar
    13     7    11   ar
    14     7    12   ar
    15     8    10   ar
    16     8    11   ar
    17     8    13   ar
    18     9    15   ar
    19    10    14   ar
    20    12    18   ar
    21    13    16   ar
    22    13    20    1
    23    14    17   ar
    24    14    21    1
    25    15    19   ar
    26    15    22    1
    27    16    17   ar
    28    18    19   ar
    29    18    23    1
