@<TRIPOS>MOLECULE
IMPHY012659
 39 41 0 0 0
SMALL
GASTEIGER

@<TRIPOS>ATOM
      1 O           6.3981   -0.2500    0.0000 O.2     1  UNL1       -0.4544
      2 O           7.2641   -1.7500    0.0000 O.3     1  UNL1       -0.4943
      3 O           2.8680   -0.2742    0.0000 O.3     1  UNL1       -0.4950
      4 O          10.7282   -1.7500    0.0000 O.3     1  UNL1       -0.4950
      5 O           6.3981    2.7500    0.0000 O.2     1  UNL1       -0.2870
      6 C           7.2641    0.2500    0.0000 C.ar    1  UNL1        0.1427
      7 C           8.1301   -0.2500    0.0000 C.ar    1  UNL1        0.0592
      8 C           5.5320    1.2500    0.0000 C.ar    1  UNL1        0.0642
      9 C           5.5320    0.2500    0.0000 C.ar    1  UNL1        0.1427
     10 C           7.2641    1.2500    0.0000 C.ar    1  UNL1        0.0288
     11 C           6.3981    1.7500    0.0000 C.ar    1  UNL1        0.1931
     12 C           8.1301   -1.2500    0.0000 C.ar    1  UNL1        0.1342
     13 C           4.6381   -0.2847    0.0000 C.ar    1  UNL1        0.0231
     14 C           4.6381    1.7847    0.0000 C.ar    1  UNL1       -0.0439
     15 C           8.9962    0.2500    0.0000 C.ar    1  UNL1       -0.0441
     16 C           3.7320    0.2292    0.0000 C.ar    1  UNL1        0.1236
     17 C           8.9962   -1.7500    0.0000 C.ar    1  UNL1        0.0225
     18 C           3.7320    1.2708    0.0000 C.ar    1  UNL1       -0.0190
     19 C           9.8622   -1.2500    0.0000 C.ar    1  UNL1        0.1236
     20 C           9.8622   -0.2500    0.0000 C.ar    1  UNL1       -0.0191
     21 C           7.2641   -2.7500    0.0000 C.3     1  UNL1        0.0788
     22 C           2.0000    0.2225    0.0000 C.3     1  UNL1        0.0788
     23 C          11.5942   -1.2500    0.0000 C.3     1  UNL1        0.0788
     24 H           7.8010    1.5600    0.0000 H       1  UNL1        0.0693
     25 H           4.6453   -0.9046    0.0000 H       1  UNL1        0.0691
     26 H           8.9962    0.8700    0.0000 H       1  UNL1        0.0627
     27 H           4.6453    2.4046    0.0000 H       1  UNL1        0.0627
     28 H           8.9962   -2.3700    0.0000 H       1  UNL1        0.0691
     29 H           3.1963    1.5829    0.0000 H       1  UNL1        0.0654
     30 H          10.3991    0.0600    0.0000 H       1  UNL1        0.0654
     31 H           6.6441   -2.7500    0.0000 H       1  UNL1        0.0660
     32 H           7.2641   -3.3700    0.0000 H       1  UNL1        0.0660
     33 H           7.8841   -2.7500    0.0000 H       1  UNL1        0.0660
     34 H           2.3079    0.7606    0.0000 H       1  UNL1        0.0660
     35 H           1.4619    0.5304    0.0000 H       1  UNL1        0.0660
     36 H           1.6921   -0.3156    0.0000 H       1  UNL1        0.0660
     37 H          11.9042   -1.7869    0.0000 H       1  UNL1        0.0660
     38 H          12.1312   -0.9400    0.0000 H       1  UNL1        0.0660
     39 H          11.2842   -0.7131    0.0000 H       1  UNL1        0.0660
@<TRIPOS>BOND
     1     1     6   ar
     2     1     9   ar
     3     2    12    1
     4     2    21    1
     5     3    16    1
     6     3    22    1
     7     4    19    1
     8     4    23    1
     9     5    11    2
    10     6     7    1
    11     6    10   ar
    12     7    12   ar
    13     7    15   ar
    14     8     9   ar
    15     8    11   ar
    16     8    14   ar
    17     9    13   ar
    18    10    11   ar
    19    10    24    1
    20    12    17   ar
    21    13    16   ar
    22    13    25    1
    23    14    18   ar
    24    14    27    1
    25    15    20   ar
    26    15    26    1
    27    16    18   ar
    28    17    19   ar
    29    17    28    1
    30    18    29    1
    31    19    20   ar
    32    20    30    1
    33    21    31    1
    34    21    32    1
    35    21    33    1
    36    22    34    1
    37    22    35    1
    38    22    36    1
    39    23    37    1
    40    23    38    1
    41    23    39    1
