@<TRIPOS>MOLECULE
IMPHY010714
 35 39 0 0 0
SMALL
GASTEIGER

@<TRIPOS>ATOM
      1 N           4.7208   -6.4333    0.0000 N.3     1  UNL1       -0.2700
      2 C           3.8917   -6.4458    0.0000 C.3     1  UNL1        0.0799
      3 C           3.4750   -7.1708    0.0000 C.ar    1  UNL1       -0.0085
      4 C           2.4667   -3.3542    0.0000 C.ar    1  UNL1       -0.0085
      5 C           3.1917   -3.7750    0.0000 C.3     1  UNL1        0.0799
      6 N           3.9167   -3.3542    0.0000 N.3     1  UNL1       -0.2688
      7 C           3.9000   -7.8833    0.0000 C.ar    1  UNL1       -0.0203
      8 C           2.4792   -2.5292    0.0000 C.ar    1  UNL1       -0.0201
      9 C           3.4833   -5.7292    0.0000 C.3     1  UNL1        0.0206
     10 C           3.1917   -4.6000    0.0000 C.3     1  UNL1        0.0206
     11 C           2.6458   -7.1667    0.0000 C.ar    1  UNL1        0.0368
     12 C           1.7542   -3.7625    0.0000 C.ar    1  UNL1        0.0369
     13 C           3.9042   -5.0042    0.0000 C.3     1  UNL1        0.0047
     14 C           5.1417   -5.7292    0.0000 C.3     1  UNL1        0.0723
     15 C           1.0500   -3.3542    0.0000 C.ar    1  UNL1        0.1771
     16 C           2.2417   -7.8875    0.0000 C.ar    1  UNL1        0.1721
     17 C           1.7542   -2.1125    0.0000 C.ar    1  UNL1        0.0407
     18 C           3.4792   -8.5875    0.0000 C.ar    1  UNL1        0.0356
     19 C           1.0500   -2.5292    0.0000 C.ar    1  UNL1        0.2289
     20 C           2.6583   -8.6042    0.0000 C.ar    1  UNL1        0.1721
     21 C           4.7292   -5.0125    0.0000 C.3     1  UNL1        0.0161
     22 C           5.1333   -7.1583    0.0000 C.3     1  UNL1        0.0770
     23 C           3.9167   -2.5292    0.0000 C.3     1  UNL1        0.0771
     24 C           4.7208   -7.8792    0.0000 C.3     1  UNL1        0.0435
     25 C           3.1917   -2.1042    0.0000 C.3     1  UNL1        0.0435
     26 O           0.3375   -2.1125    0.0000 O.3     1  UNL1       -0.2833
     27 O           0.3292   -3.7625    0.0000 O.3     1  UNL1       -0.4682
     28 O           1.4083   -7.8750    0.0000 O.3     1  UNL1       -0.4684
     29 O           2.2458   -9.3167    0.0000 O.3     1  UNL1       -0.4684
     30 C           4.6292   -3.7833    0.0000 C.3     1  UNL1        0.0899
     31 C           5.1375   -4.2875    0.0000 C.3     1  UNL1        0.0014
     32 C          -0.3917   -3.3542    0.0000 C.3     1  UNL1        0.2526
     33 C           2.6583  -10.0292    0.0000 C.3     1  UNL1        0.2526
     34 C           0.9917   -8.5958    0.0000 C.3     1  UNL1        0.2526
     35 C           5.9667   -4.2833    0.0000 C.3     1  UNL1        0.0000
@<TRIPOS>BOND
     1     2     1    1
     2     3     2    1
     3     4     5    1
     4     5    10    1
     5     6     5    1
     6     7    24    1
     7     7     3   ar
     8     8     4   ar
     9     9     2    1
    10    10    13    1
    11    11     3   ar
    12    12     4   ar
    13    13    21    1
    14    13     9    1
    15    14     1    1
    16    15    12   ar
    17    16    11   ar
    18    17     8   ar
    19    18     7   ar
    20    19    15   ar
    21    19    17   ar
    22    20    18   ar
    23    20    16   ar
    24    21    14    1
    25    22     1    1
    26    23     6    1
    27    24    22    1
    28    25    23    1
    29    25     8    1
    30    26    19    1
    31    27    15    1
    32    28    16    1
    33    29    20    1
    34    30     6    1
    35    31    21    1
    36    32    27    1
    37    33    29    1
    38    34    28    1
    39    35    31    1
