@<TRIPOS>MOLECULE
IMPHY016066
 52 51 0 0 0
SMALL
GASTEIGER

@<TRIPOS>ATOM
      1 C          11.5263    0.2500    0.0000 C.3     1  UNL1       -0.0283
      2 C           5.4641   -0.2500    0.0000 C.3     1  UNL1       -0.0283
      3 C          12.3923   -0.2500    0.0000 C.3     1  UNL1       -0.0308
      4 C           4.5981    0.2500    0.0000 C.3     1  UNL1       -0.0308
      5 C          10.6603   -0.2500    0.0000 C.2     1  UNL1       -0.0723
      6 C           6.3301    0.2500    0.0000 C.2     1  UNL1       -0.0723
      7 C          13.2583    0.2500    0.0000 C.2     1  UNL1       -0.0850
      8 C           3.7320   -0.2500    0.0000 C.2     1  UNL1       -0.0850
      9 C           9.7942    0.2500    0.0000 C.2     1  UNL1       -0.0628
     10 C           7.1962   -0.2500    0.0000 C.2     1  UNL1       -0.0628
     11 C          10.6603   -1.2500    0.0000 C.3     1  UNL1       -0.0435
     12 C           6.3301    1.2500    0.0000 C.3     1  UNL1       -0.0435
     13 C          14.1244   -0.2500    0.0000 C.2     1  UNL1       -0.0796
     14 C           2.8660    0.2500    0.0000 C.2     1  UNL1       -0.0796
     15 C           8.9282   -0.2500    0.0000 C.2     1  UNL1       -0.0618
     16 C           8.0622    0.2500    0.0000 C.2     1  UNL1       -0.0618
     17 C          14.9904    0.2500    0.0000 C.3     1  UNL1       -0.0440
     18 C          14.1244   -1.2500    0.0000 C.3     1  UNL1       -0.0440
     19 C           2.0000   -0.2500    0.0000 C.3     1  UNL1       -0.0440
     20 C           2.8660    1.2500    0.0000 C.3     1  UNL1       -0.0440
     21 H          11.9248    0.7249    0.0000 H       1  UNL1        0.0313
     22 H          11.1278    0.7249    0.0000 H       1  UNL1        0.0313
     23 H           5.0656   -0.7249    0.0000 H       1  UNL1        0.0313
     24 H           5.8626   -0.7249    0.0000 H       1  UNL1        0.0313
     25 H          11.9938   -0.7249    0.0000 H       1  UNL1        0.0310
     26 H          12.7908   -0.7249    0.0000 H       1  UNL1        0.0310
     27 H           4.9966    0.7249    0.0000 H       1  UNL1        0.0310
     28 H           4.1996    0.7249    0.0000 H       1  UNL1        0.0310
     29 H          13.2583    0.8700    0.0000 H       1  UNL1        0.0572
     30 H           3.7320   -0.8700    0.0000 H       1  UNL1        0.0572
     31 H           9.7942    0.8700    0.0000 H       1  UNL1        0.0617
     32 H           7.1962   -0.8700    0.0000 H       1  UNL1        0.0617
     33 H          10.0403   -1.2500    0.0000 H       1  UNL1        0.0274
     34 H          10.6603   -1.8700    0.0000 H       1  UNL1        0.0274
     35 H          11.2803   -1.2500    0.0000 H       1  UNL1        0.0274
     36 H           6.9501    1.2500    0.0000 H       1  UNL1        0.0274
     37 H           6.3301    1.8700    0.0000 H       1  UNL1        0.0274
     38 H           5.7101    1.2500    0.0000 H       1  UNL1        0.0274
     39 H           8.9282   -0.8700    0.0000 H       1  UNL1        0.0618
     40 H           8.0622    0.8700    0.0000 H       1  UNL1        0.0618
     41 H          15.3004   -0.2869    0.0000 H       1  UNL1        0.0274
     42 H          15.5273    0.5600    0.0000 H       1  UNL1        0.0274
     43 H          14.6804    0.7869    0.0000 H       1  UNL1        0.0274
     44 H          13.5044   -1.2500    0.0000 H       1  UNL1        0.0274
     45 H          14.1244   -1.8700    0.0000 H       1  UNL1        0.0274
     46 H          14.7444   -1.2500    0.0000 H       1  UNL1        0.0274
     47 H           1.6900    0.2869    0.0000 H       1  UNL1        0.0274
     48 H           1.4631   -0.5600    0.0000 H       1  UNL1        0.0274
     49 H           2.3100   -0.7869    0.0000 H       1  UNL1        0.0274
     50 H           3.4860    1.2500    0.0000 H       1  UNL1        0.0274
     51 H           2.8660    1.8700    0.0000 H       1  UNL1        0.0274
     52 H           2.2460    1.2500    0.0000 H       1  UNL1        0.0274
@<TRIPOS>BOND
     1     1     3    1
     2     1     5    1
     3     1    21    1
     4     1    22    1
     5     2     4    1
     6     2     6    1
     7     2    23    1
     8     2    24    1
     9     3     7    1
    10     3    25    1
    11     3    26    1
    12     4     8    1
    13     4    27    1
    14     4    28    1
    15     5     9    2
    16     5    11    1
    17     6    10    2
    18     6    12    1
    19     7    13    2
    20     7    29    1
    21     8    14    2
    22     8    30    1
    23     9    15    1
    24     9    31    1
    25    10    16    1
    26    10    32    1
    27    11    33    1
    28    11    34    1
    29    11    35    1
    30    12    36    1
    31    12    37    1
    32    12    38    1
    33    13    17    1
    34    13    18    1
    35    14    19    1
    36    14    20    1
    37    15    16    2
    38    15    39    1
    39    16    40    1
    40    17    41    1
    41    17    42    1
    42    17    43    1
    43    18    44    1
    44    18    45    1
    45    18    46    1
    46    19    47    1
    47    19    48    1
    48    19    49    1
    49    20    50    1
    50    20    51    1
    51    20    52    1
