@<TRIPOS>MOLECULE
IMPHY005937
 31 30 0 0 0
SMALL
GASTEIGER

@<TRIPOS>ATOM
      1 O           2.5369    0.2500    0.0000 O.3     1  UNL1       -0.3910
      2 C           8.5991   -0.2500    0.0000 C.3     1  UNL1       -0.0531
      3 C           7.7331    0.2500    0.0000 C.3     1  UNL1       -0.0528
      4 C           9.4651    0.2500    0.0000 C.3     1  UNL1       -0.0533
      5 C           6.8671   -0.2500    0.0000 C.3     1  UNL1       -0.0496
      6 C          10.3312   -0.2500    0.0000 C.3     1  UNL1       -0.0559
      7 C           6.0010    0.2500    0.0000 C.3     1  UNL1       -0.0347
      8 C          11.1972    0.2500    0.0000 C.3     1  UNL1       -0.0653
      9 C           5.1350   -0.2500    0.0000 C.2     1  UNL1       -0.0858
     10 C           4.2690    0.2500    0.0000 C.2     1  UNL1       -0.0629
     11 C           3.4030   -0.2500    0.0000 C.3     1  UNL1        0.0624
     12 H           8.2006   -0.7249    0.0000 H       1  UNL1        0.0265
     13 H           8.9976   -0.7249    0.0000 H       1  UNL1        0.0265
     14 H           8.1316    0.7249    0.0000 H       1  UNL1        0.0265
     15 H           7.3346    0.7249    0.0000 H       1  UNL1        0.0265
     16 H           9.8637    0.7249    0.0000 H       1  UNL1        0.0265
     17 H           9.0666    0.7249    0.0000 H       1  UNL1        0.0265
     18 H           6.4685   -0.7249    0.0000 H       1  UNL1        0.0268
     19 H           7.2656   -0.7249    0.0000 H       1  UNL1        0.0268
     20 H           9.9326   -0.7249    0.0000 H       1  UNL1        0.0263
     21 H          10.7297   -0.7249    0.0000 H       1  UNL1        0.0263
     22 H           6.3996    0.7249    0.0000 H       1  UNL1        0.0307
     23 H           5.6025    0.7249    0.0000 H       1  UNL1        0.0307
     24 H          11.5072   -0.2869    0.0000 H       1  UNL1        0.0230
     25 H          11.7341    0.5600    0.0000 H       1  UNL1        0.0230
     26 H          10.8872    0.7869    0.0000 H       1  UNL1        0.0230
     27 H           5.1350   -0.8700    0.0000 H       1  UNL1        0.0570
     28 H           4.2690    0.8700    0.0000 H       1  UNL1        0.0591
     29 H           3.0044   -0.7249    0.0000 H       1  UNL1        0.0601
     30 H           3.8015   -0.7249    0.0000 H       1  UNL1        0.0601
     31 H           2.0000   -0.0600    0.0000 H       1  UNL1        0.2098
@<TRIPOS>BOND
     1     1    11    1
     2     1    31    1
     3     2     3    1
     4     2     4    1
     5     2    12    1
     6     2    13    1
     7     3     5    1
     8     3    14    1
     9     3    15    1
    10     4     6    1
    11     4    16    1
    12     4    17    1
    13     5     7    1
    14     5    18    1
    15     5    19    1
    16     6     8    1
    17     6    20    1
    18     6    21    1
    19     7     9    1
    20     7    22    1
    21     7    23    1
    22     8    24    1
    23     8    25    1
    24     8    26    1
    25     9    10    2
    26     9    27    1
    27    10    11    1
    28    10    28    1
    29    11    29    1
    30    11    30    1
