@<TRIPOS>MOLECULE
IMPHY007430
 51 50 0 0 0
SMALL
GASTEIGER

@<TRIPOS>ATOM
      1 O          14.1244   -1.0950    0.0000 O.3     1  UNL1       -0.3806
      2 O          15.8564   -0.0950    0.0000 O.3     1  UNL1       -0.4788
      3 O          14.9904    1.4050    0.0000 O.2     1  UNL1       -0.2481
      4 C           8.9282   -0.0950    0.0000 C.3     1  UNL1       -0.0531
      5 C           8.0622    0.4050    0.0000 C.3     1  UNL1       -0.0531
      6 C           9.7942    0.4050    0.0000 C.3     1  UNL1       -0.0531
      7 C           7.1962   -0.0950    0.0000 C.3     1  UNL1       -0.0531
      8 C          10.6603   -0.0950    0.0000 C.3     1  UNL1       -0.0531
      9 C           6.3301    0.4050    0.0000 C.3     1  UNL1       -0.0531
     10 C           5.4641   -0.0950    0.0000 C.3     1  UNL1       -0.0531
     11 C          11.5263    0.4050    0.0000 C.3     1  UNL1       -0.0530
     12 C           4.5981    0.4050    0.0000 C.3     1  UNL1       -0.0531
     13 C          12.3923   -0.0950    0.0000 C.3     1  UNL1       -0.0502
     14 C           3.7320   -0.0950    0.0000 C.3     1  UNL1       -0.0533
     15 C          13.2583    0.4050    0.0000 C.3     1  UNL1       -0.0164
     16 C           2.8660    0.4050    0.0000 C.3     1  UNL1       -0.0559
     17 C          14.1244   -0.0950    0.0000 C.3     1  UNL1        0.1514
     18 C           2.0000   -0.0950    0.0000 C.3     1  UNL1       -0.0653
     19 C          14.9904    0.4050    0.0000 C.2     1  UNL1        0.3336
     20 H           8.5297   -0.5699    0.0000 H       1  UNL1        0.0265
     21 H           9.3267   -0.5699    0.0000 H       1  UNL1        0.0265
     22 H           8.4607    0.8799    0.0000 H       1  UNL1        0.0265
     23 H           7.6636    0.8799    0.0000 H       1  UNL1        0.0265
     24 H          10.1928    0.8799    0.0000 H       1  UNL1        0.0265
     25 H           9.3957    0.8799    0.0000 H       1  UNL1        0.0265
     26 H           6.7976   -0.5699    0.0000 H       1  UNL1        0.0265
     27 H           7.5947   -0.5699    0.0000 H       1  UNL1        0.0265
     28 H          10.2617   -0.5699    0.0000 H       1  UNL1        0.0265
     29 H          11.0588   -0.5699    0.0000 H       1  UNL1        0.0265
     30 H           6.7287    0.8799    0.0000 H       1  UNL1        0.0265
     31 H           5.9316    0.8799    0.0000 H       1  UNL1        0.0265
     32 H           5.0656   -0.5699    0.0000 H       1  UNL1        0.0265
     33 H           5.8626   -0.5699    0.0000 H       1  UNL1        0.0265
     34 H          11.9248    0.8799    0.0000 H       1  UNL1        0.0265
     35 H          11.1278    0.8799    0.0000 H       1  UNL1        0.0265
     36 H           4.9966    0.8799    0.0000 H       1  UNL1        0.0265
     37 H           4.1996    0.8799    0.0000 H       1  UNL1        0.0265
     38 H          11.9938   -0.5699    0.0000 H       1  UNL1        0.0266
     39 H          12.7908   -0.5699    0.0000 H       1  UNL1        0.0266
     40 H           3.3335   -0.5699    0.0000 H       1  UNL1        0.0265
     41 H           4.1306   -0.5699    0.0000 H       1  UNL1        0.0265
     42 H          13.6569    0.8799    0.0000 H       1  UNL1        0.0295
     43 H          12.8598    0.8799    0.0000 H       1  UNL1        0.0295
     44 H           3.2646    0.8799    0.0000 H       1  UNL1        0.0263
     45 H           2.4675    0.8799    0.0000 H       1  UNL1        0.0263
     46 H          13.5874   -0.4050    0.0000 H       1  UNL1        0.0710
     47 H           1.6900    0.4419    0.0000 H       1  UNL1        0.0230
     48 H           1.4631   -0.4050    0.0000 H       1  UNL1        0.0230
     49 H           2.3100   -0.6319    0.0000 H       1  UNL1        0.0230
     50 H          13.5874   -1.4050    0.0000 H       1  UNL1        0.2105
     51 H          16.3933    0.2150    0.0000 H       1  UNL1        0.2951
@<TRIPOS>BOND
     1     1    17    1
     2     1    50    1
     3     2    19    1
     4     2    51    1
     5     3    19    2
     6     4     5    1
     7     4     6    1
     8     4    20    1
     9     4    21    1
    10     5     7    1
    11     5    22    1
    12     5    23    1
    13     6     8    1
    14     6    24    1
    15     6    25    1
    16     7     9    1
    17     7    26    1
    18     7    27    1
    19     8    11    1
    20     8    28    1
    21     8    29    1
    22     9    10    1
    23     9    30    1
    24     9    31    1
    25    10    12    1
    26    10    32    1
    27    10    33    1
    28    11    13    1
    29    11    34    1
    30    11    35    1
    31    12    14    1
    32    12    36    1
    33    12    37    1
    34    13    15    1
    35    13    38    1
    36    13    39    1
    37    14    16    1
    38    14    40    1
    39    14    41    1
    40    15    17    1
    41    15    42    1
    42    15    43    1
    43    16    18    1
    44    16    44    1
    45    16    45    1
    46    17    19    1
    47    17    46    1
    48    18    47    1
    49    18    48    1
    50    18    49    1
