@<TRIPOS>MOLECULE
IMPHY014379
 30 29 0 0 0
SMALL
GASTEIGER

@<TRIPOS>ATOM
      1 O           5.4641    0.4400    0.0000 O.3     1  UNL1       -0.4340
      2 O           4.5981   -1.0600    0.0000 O.2     1  UNL1       -0.2504
      3 C           8.9282    0.4400    0.0000 C.3     1  UNL1       -0.0498
      4 C           9.7942   -0.0600    0.0000 C.3     1  UNL1       -0.0556
      5 C           8.0622   -0.0600    0.0000 C.3     1  UNL1       -0.0316
      6 C          10.6603    0.4400    0.0000 C.3     1  UNL1       -0.0653
      7 C           2.8660   -0.0600    0.0000 C.3     1  UNL1       -0.0458
      8 C           3.7320    0.4400    0.0000 C.3     1  UNL1        0.0451
      9 C           7.1962    0.4400    0.0000 C.2     1  UNL1       -0.0490
     10 C           2.0000    0.4400    0.0000 C.3     1  UNL1       -0.0648
     11 C           4.5981   -0.0600    0.0000 C.2     1  UNL1        0.3118
     12 C           6.3301   -0.0600    0.0000 C.2     1  UNL1        0.0917
     13 H           9.3267    0.9149    0.0000 H       1  UNL1        0.0268
     14 H           8.5297    0.9149    0.0000 H       1  UNL1        0.0268
     15 H           9.3957   -0.5349    0.0000 H       1  UNL1        0.0263
     16 H          10.1928   -0.5349    0.0000 H       1  UNL1        0.0263
     17 H           7.6636   -0.5349    0.0000 H       1  UNL1        0.0308
     18 H           8.4607   -0.5349    0.0000 H       1  UNL1        0.0308
     19 H          10.9703   -0.0969    0.0000 H       1  UNL1        0.0230
     20 H          11.1972    0.7500    0.0000 H       1  UNL1        0.0230
     21 H          10.3503    0.9769    0.0000 H       1  UNL1        0.0230
     22 H           2.4675   -0.5349    0.0000 H       1  UNL1        0.0268
     23 H           3.2646   -0.5349    0.0000 H       1  UNL1        0.0268
     24 H           4.1306    0.9149    0.0000 H       1  UNL1        0.0377
     25 H           3.3335    0.9149    0.0000 H       1  UNL1        0.0377
     26 H           7.1962    1.0600    0.0000 H       1  UNL1        0.0602
     27 H           2.3100    0.9769    0.0000 H       1  UNL1        0.0230
     28 H           1.4631    0.7500    0.0000 H       1  UNL1        0.0230
     29 H           1.6900   -0.0969    0.0000 H       1  UNL1        0.0230
     30 H           6.3301   -0.6800    0.0000 H       1  UNL1        0.1027
@<TRIPOS>BOND
     1     1    11    1
     2     1    12    1
     3     2    11    2
     4     3     4    1
     5     3     5    1
     6     3    13    1
     7     3    14    1
     8     4     6    1
     9     4    15    1
    10     4    16    1
    11     5     9    1
    12     5    17    1
    13     5    18    1
    14     6    19    1
    15     6    20    1
    16     6    21    1
    17     7     8    1
    18     7    10    1
    19     7    22    1
    20     7    23    1
    21     8    11    1
    22     8    24    1
    23     8    25    1
    24     9    12    2
    25     9    26    1
    26    10    27    1
    27    10    28    1
    28    10    29    1
    29    12    30    1
