@<TRIPOS>MOLECULE
IMPHY013729
 42 43 0 0 0
SMALL
GASTEIGER

@<TRIPOS>ATOM
      1 O           4.5981   -3.3100    0.0000 O.3     1  UNL1       -0.4793
      2 OXT         5.4641   -4.8100    0.0000 O.2     1  UNL1       -0.2489
      3 O           9.7942   -3.3100    0.0000 O.3     1  UNL1       -0.4763
      4 OXT         8.9282   -4.8100    0.0000 O.2     1  UNL1       -0.2437
      5 O           2.0000    4.1900    0.0000 O.3     1  UNL1       -0.5068
      6 N           7.1962   -3.8100    0.0000 N.pl3   1  UNL1       -0.3256
      7 N           6.3301    0.6900    0.0000 N.2     1  UNL1       -0.2912
      8 CA          6.3301   -3.3100    0.0000 C.3     1  UNL1        0.1224
      9 C           6.3301   -2.3100    0.0000 C.3     1  UNL1        0.0013
     10 C           7.1962   -1.8100    0.0000 C.2     1  UNL1       -0.0417
     11 CA          8.0622   -3.3100    0.0000 C.2     1  UNL1        0.1130
     12 C           8.0622   -2.3100    0.0000 C.2     1  UNL1       -0.0306
     13 C           5.4641   -3.8100    0.0000 C.2     1  UNL1        0.3255
     14 C           7.1962   -0.8100    0.0000 C.2     1  UNL1       -0.0407
     15 C           5.4641    2.1900    0.0000 C.3     1  UNL1       -0.0081
     16 C           5.4641    1.1900    0.0000 C.3     1  UNL1        0.0436
     17 C           8.9282   -3.8100    0.0000 C.2     1  UNL1        0.3508
     18 C           4.5981    2.6900    0.0000 C.ar    1  UNL1       -0.0454
     19 C           6.3301   -0.3100    0.0000 C.2     1  UNL1        0.0224
     20 C           3.7320    2.1900    0.0000 C.ar    1  UNL1       -0.0551
     21 C           4.5981    3.6900    0.0000 C.ar    1  UNL1       -0.0551
     22 C           2.8660    2.6900    0.0000 C.ar    1  UNL1       -0.0199
     23 C           3.7320    4.1900    0.0000 C.ar    1  UNL1       -0.0199
     24 C           2.8660    3.6900    0.0000 C.ar    1  UNL1        0.1169
     25 HA          6.3301   -3.9300    0.0000 H       1  UNL1        0.0617
     26 H           6.1181   -1.7274    0.0000 H       1  UNL1        0.0337
     27 H           5.7196   -2.4177    0.0000 H       1  UNL1        0.0337
     28 H           7.1962   -4.4300    0.0000 H       1  UNL1        0.1471
     29 H           8.5991   -2.0000    0.0000 H       1  UNL1        0.0641
     30 H           7.7331   -0.5000    0.0000 H       1  UNL1        0.0635
     31 H           6.0747    2.0823    0.0000 H       1  UNL1        0.0331
     32 H           5.6762    2.7726    0.0000 H       1  UNL1        0.0331
     33 H           4.8535    1.2977    0.0000 H       1  UNL1        0.0511
     34 H           5.2520    0.6074    0.0000 H       1  UNL1        0.0511
     35 H           5.7932   -0.6200    0.0000 H       1  UNL1        0.0825
     36 H           3.7320    1.5700    0.0000 H       1  UNL1        0.0621
     37 H           5.1350    4.0000    0.0000 H       1  UNL1        0.0621
     38 H           4.0611   -3.6200    0.0000 H       1  UNL1        0.2951
     39 H           2.3291    2.3800    0.0000 H       1  UNL1        0.0654
     40 H           3.7320    4.8100    0.0000 H       1  UNL1        0.0654
     41 H          10.3312   -3.6200    0.0000 H       1  UNL1        0.2954
     42 H           2.0000    4.8100    0.0000 H       1  UNL1        0.2921
@<TRIPOS>BOND
     1     1    13    1
     2     1    38    1
     3     2    13    2
     4     3    17    1
     5     3    41    1
     6     4    17    2
     7     5    24    1
     8     5    42    1
     9     6     8    1
    10     6    11    1
    11     6    28    1
    12     7    16    1
    13     7    19    2
    14     8     9    1
    15     8    13    1
    16     8    25    1
    17     9    10    1
    18     9    26    1
    19     9    27    1
    20    10    12    1
    21    10    14    2
    22    11    12    2
    23    11    17    1
    24    12    29    1
    25    14    19    1
    26    14    30    1
    27    15    16    1
    28    15    18    1
    29    15    31    1
    30    15    32    1
    31    16    33    1
    32    16    34    1
    33    18    20   ar
    34    18    21   ar
    35    19    35    1
    36    20    22   ar
    37    20    36    1
    38    21    23   ar
    39    21    37    1
    40    22    24   ar
    41    22    39    1
    42    23    24   ar
    43    23    40    1
