@<TRIPOS>MOLECULE
IMPHY009326
 60 63 0 0 0
SMALL
GASTEIGER

@<TRIPOS>ATOM
      1 O           8.1223   -2.0159    0.0000 O.3     1  UNL1       -0.4608
      2 O           5.5103    1.5125    0.0000 O.3     1  UNL1       -0.3889
      3 O           7.2762    2.5503    0.0000 O.3     1  UNL1       -0.3769
      4 O           4.6497    1.0156    0.0000 O.2     1  UNL1       -0.2882
      5 O           2.8680    0.0052    0.0000 O.2     1  UNL1       -0.4919
      6 O           9.8438   -2.0487    0.0000 O.2     1  UNL1       -0.2508
      7 C           7.2641   -0.5190    0.0000 C.3     1  UNL1        0.0148
      8 C           6.3981   -0.0190    0.0000 C.3     1  UNL1        0.0093
      9 C           5.5320   -0.5190    0.0000 C.3     1  UNL1        0.0431
     10 C           8.1741   -0.0122    0.0000 C.3     1  UNL1       -0.0168
     11 C           7.2641   -1.5190    0.0000 C.3     1  UNL1        0.1093
     12 C           5.5320   -1.5190    0.0000 C.3     1  UNL1       -0.0186
     13 C           6.3820    1.0225    0.0000 C.3     1  UNL1        0.0859
     14 C           6.3981   -2.0190    0.0000 C.3     1  UNL1       -0.0109
     15 C           8.1821    1.0294    0.0000 C.3     1  UNL1       -0.0112
     16 C           7.2800    1.5503    0.0000 C.3     1  UNL1        0.0873
     17 C           7.2641    0.4810    0.0000 C.3     1  UNL1       -0.0555
     18 C           9.0134   -0.5404    0.0000 C.3     1  UNL1        0.0487
     19 C           4.6381   -2.0537    0.0000 C.3     1  UNL1       -0.0181
     20 C           5.5320    0.4810    0.0000 C.3     1  UNL1       -0.0517
     21 C           4.6381    0.0157    0.0000 C.2     1  UNL1        0.2034
     22 C           9.0501    1.5261    0.0000 C.3     1  UNL1       -0.0597
     23 C           8.9878   -1.5318    0.0000 C.2     1  UNL1        0.3076
     24 C           3.7320   -1.5398    0.0000 C.2     1  UNL1       -0.0356
     25 C           3.7320   -0.4982    0.0000 C.2     1  UNL1        0.1592
     26 C           4.6497   -3.0536    0.0000 C.3     1  UNL1       -0.0585
     27 C           8.1403    3.0536    0.0000 C.3     1  UNL1        0.0369
     28 C           2.0000   -0.4915    0.0000 C.3     1  UNL1        0.0789
     29 H           5.6587    0.4003    0.0000 H       1  UNL1        0.0343
     30 H           8.9198    0.3959    0.0000 H       1  UNL1        0.0316
     31 H           7.2636   -2.3690    0.0000 H       1  UNL1        0.0739
     32 H           5.5386   -2.3690    0.0000 H       1  UNL1        0.0317
     33 H           5.8493    0.7053    0.0000 H       1  UNL1        0.0622
     34 H           5.9995   -2.4939    0.0000 H       1  UNL1        0.0304
     35 H           6.7966   -2.4939    0.0000 H       1  UNL1        0.0304
     36 H           8.7173    0.7164    0.0000 H       1  UNL1        0.0327
     37 H           6.7413    1.8572    0.0000 H       1  UNL1        0.0624
     38 H           7.8841    0.4810    0.0000 H       1  UNL1        0.0236
     39 H           7.2641    1.1010    0.0000 H       1  UNL1        0.0236
     40 H           6.6441    0.4810    0.0000 H       1  UNL1        0.0236
     41 H           9.6205   -0.6663    0.0000 H       1  UNL1        0.0380
     42 H           9.2452    0.0347    0.0000 H       1  UNL1        0.0380
     43 H           4.1042   -2.3688    0.0000 H       1  UNL1        0.0344
     44 H           6.1520    0.4810    0.0000 H       1  UNL1        0.0239
     45 H           5.5320    1.1010    0.0000 H       1  UNL1        0.0239
     46 H           4.9120    0.4810    0.0000 H       1  UNL1        0.0239
     47 H           9.3580    0.9880    0.0000 H       1  UNL1        0.0233
     48 H           9.5882    1.8340    0.0000 H       1  UNL1        0.0233
     49 H           8.7422    2.0642    0.0000 H       1  UNL1        0.0233
     50 H           3.1963   -1.8519    0.0000 H       1  UNL1        0.0612
     51 H           5.5031    2.1324    0.0000 H       1  UNL1        0.2099
     52 H           4.0297   -3.0608    0.0000 H       1  UNL1        0.0235
     53 H           4.6568   -3.6736    0.0000 H       1  UNL1        0.0235
     54 H           5.2696   -3.0464    0.0000 H       1  UNL1        0.0235
     55 H           8.4523    2.5178    0.0000 H       1  UNL1        0.0524
     56 H           8.6760    3.3657    0.0000 H       1  UNL1        0.0524
     57 H           7.8282    3.5893    0.0000 H       1  UNL1        0.0524
     58 H           1.6921    0.0466    0.0000 H       1  UNL1        0.0660
     59 H           1.4619   -0.7994    0.0000 H       1  UNL1        0.0660
     60 H           2.3079   -1.0296    0.0000 H       1  UNL1        0.0660
@<TRIPOS>BOND
     1     1    11    1
     2     1    23    1
     3    13     2    1
     4     2    51    1
     5    16     3    1
     6     3    27    1
     7     4    21    2
     8     5    25    1
     9     5    28    1
    10     6    23    2
    11     7     8    1
    12     7    10    1
    13     7    11    1
    14     7    17    1
    15     8     9    1
    16     8    13    1
    17     8    29    1
    18     9    12    1
    19     9    20    1
    20     9    21    1
    21    10    15    1
    22    10    18    1
    23    10    30    1
    24    11    14    1
    25    11    31    1
    26    12    14    1
    27    12    19    1
    28    12    32    1
    29    13    16    1
    30    13    33    1
    31    14    34    1
    32    14    35    1
    33    15    16    1
    34    15    22    1
    35    15    36    1
    36    16    37    1
    37    17    38    1
    38    17    39    1
    39    17    40    1
    40    18    23    1
    41    18    41    1
    42    18    42    1
    43    19    24    1
    44    19    26    1
    45    19    43    1
    46    20    44    1
    47    20    45    1
    48    20    46    1
    49    21    25    1
    50    22    47    1
    51    22    48    1
    52    22    49    1
    53    24    25    2
    54    24    50    1
    55    26    52    1
    56    26    53    1
    57    26    54    1
    58    27    55    1
    59    27    56    1
    60    27    57    1
    61    28    58    1
    62    28    59    1
    63    28    60    1
