@<TRIPOS>MOLECULE
IMPHY010966
 56 60 0 0 0
SMALL
GASTEIGER

@<TRIPOS>ATOM
      1 O           9.9759    2.3022    0.0000 O.3     1  UNL1       -0.3917
      2 O           8.1100   -1.9333    0.0000 O.3     1  UNL1       -0.4672
      3 O           6.3782   -1.2032    0.0000 O.2     1  UNL1       -0.2497
      4 O           2.5282   -1.7967    0.0000 O.3     1  UNL1       -0.4951
      5 N           7.1985    1.4785    0.0000 N.3     1  UNL1       -0.2971
      6 N           6.5625   -1.6968    0.0000 N.ar    1  UNL1       -0.3568
      7 C           7.8220    0.6967    0.0000 C.3     1  UNL1        0.0368
      8 C           7.5995   -0.2782    0.0000 C.3     1  UNL1        0.1236
      9 C           9.3498   -0.6991    0.0000 C.3     1  UNL1       -0.0264
     10 C           8.8125    1.0190    0.0000 C.3     1  UNL1        0.0021
     11 C           8.3521   -0.9984    0.0000 C.3     1  UNL1       -0.0262
     12 C           9.5815    0.3164    0.0000 C.3     1  UNL1       -0.0424
     13 C           8.9028    1.0107    0.0000 C.3     1  UNL1        0.0021
     14 C           6.6985   -0.7121    0.0000 C.ar    1  UNL1        0.0388
     15 C           6.1985    1.4785    0.0000 C.3     1  UNL1        0.0033
     16 C           9.0238    1.9965    0.0000 C.3     1  UNL1        0.0567
     17 C           7.3770   -1.2532    0.0000 C.2     1  UNL1        0.3205
     18 C           5.7976   -0.2782    0.0000 C.ar    1  UNL1       -0.0167
     19 C           5.5750    0.6967    0.0000 C.3     1  UNL1       -0.0126
     20 C           5.1125   -0.9985    0.0000 C.ar    1  UNL1        0.0066
     21 C           8.2829    2.6681    0.0000 C.3     1  UNL1       -0.0386
     22 C           5.5843   -1.8735    0.0000 C.ar    1  UNL1        0.0472
     23 C           4.0780   -0.9525    0.0000 C.ar    1  UNL1       -0.0105
     24 C           5.0544   -2.7631    0.0000 C.ar    1  UNL1       -0.0343
     25 C           7.8875   -2.9083    0.0000 C.3     1  UNL1        0.0817
     26 C           3.5277   -1.8296    0.0000 C.ar    1  UNL1        0.1208
     27 C           4.0192   -2.7410    0.0000 C.ar    1  UNL1       -0.0180
     28 C           2.0000   -2.6458    0.0000 C.3     1  UNL1        0.0788
     29 H           8.0112    1.5254    0.0000 H       1  UNL1        0.0481
     30 H           9.5647   -1.5214    0.0000 H       1  UNL1        0.0314
     31 H           9.6223    1.2774    0.0000 H       1  UNL1        0.0341
     32 H           7.8531   -1.3664    0.0000 H       1  UNL1        0.0283
     33 H           8.6292   -1.5530    0.0000 H       1  UNL1        0.0283
     34 H          10.1535    0.0771    0.0000 H       1  UNL1        0.0272
     35 H           9.9152    0.8390    0.0000 H       1  UNL1        0.0272
     36 H           9.5207    1.0610    0.0000 H       1  UNL1        0.0429
     37 H           8.9606    1.6280    0.0000 H       1  UNL1        0.0429
     38 H           6.3365    2.0830    0.0000 H       1  UNL1        0.0430
     39 H           5.6399    1.7475    0.0000 H       1  UNL1        0.0430
     40 H           9.1547    2.6025    0.0000 H       1  UNL1        0.0594
     41 H           5.1885    1.1814    0.0000 H       1  UNL1        0.0326
     42 H           5.0164    0.4277    0.0000 H       1  UNL1        0.0326
     43 H           7.0099   -2.1261    0.0000 H       1  UNL1        0.1656
     44 H           8.6993    3.1274    0.0000 H       1  UNL1        0.0255
     45 H           7.8236    3.0845    0.0000 H       1  UNL1        0.0255
     46 H           7.8665    2.2088    0.0000 H       1  UNL1        0.0255
     47 H          10.1068    2.9083    0.0000 H       1  UNL1        0.2098
     48 H           3.7901   -0.4034    0.0000 H       1  UNL1        0.0661
     49 H           5.3549   -3.3054    0.0000 H       1  UNL1        0.0639
     50 H           7.2831   -2.7703    0.0000 H       1  UNL1        0.0661
     51 H           7.7496   -3.5127    0.0000 H       1  UNL1        0.0661
     52 H           8.4920   -3.0462    0.0000 H       1  UNL1        0.0661
     53 H           3.6957   -3.2700    0.0000 H       1  UNL1        0.0655
     54 H           1.4736   -2.3183    0.0000 H       1  UNL1        0.0660
     55 H           1.6725   -3.1722    0.0000 H       1  UNL1        0.0660
     56 H           2.5264   -2.9733    0.0000 H       1  UNL1        0.0660
@<TRIPOS>BOND
     1    16     1    1
     2     1    47    1
     3     2    17    1
     4     2    25    1
     5     3    17    2
     6     4    26    1
     7     4    28    1
     8     5     7    1
     9     5    13    1
    10     5    15    1
    11     6    14   ar
    12     6    22   ar
    13     6    43    1
    14     7     8    1
    15     7    10    1
    16     7    29    1
    17     8    11    1
    18     8    14    1
    19     8    17    1
    20     9    11    1
    21     9    12    1
    22     9    13    1
    23     9    30    1
    24    10    12    1
    25    10    16    1
    26    10    31    1
    27    11    32    1
    28    11    33    1
    29    12    34    1
    30    12    35    1
    31    13    36    1
    32    13    37    1
    33    14    18   ar
    34    15    19    1
    35    15    38    1
    36    15    39    1
    37    16    21    1
    38    16    40    1
    39    18    19    1
    40    18    20   ar
    41    19    41    1
    42    19    42    1
    43    20    22   ar
    44    20    23   ar
    45    21    44    1
    46    21    45    1
    47    21    46    1
    48    22    24   ar
    49    23    26   ar
    50    23    48    1
    51    24    27   ar
    52    24    49    1
    53    25    50    1
    54    25    51    1
    55    25    52    1
    56    26    27   ar
    57    27    53    1
    58    28    54    1
    59    28    55    1
    60    28    56    1
