@<TRIPOS>MOLECULE
IMPHY007059
 33 37 0 0 0
SMALL
GASTEIGER

@<TRIPOS>ATOM
      1 O           6.9742    0.7936    0.0000 O.3     1  UNL1       -0.4520
      2 O           6.9742    2.4031    0.0000 O.3     1  UNL1       -0.4526
      3 N           2.5466    1.1197    0.0000 N.pl3   1  UNL1       -0.3430
      4 C           4.2959    1.0984    0.0000 C.ar    1  UNL1        0.0105
      5 C           4.2959    2.0984    0.0000 C.ar    1  UNL1       -0.0327
      6 C           5.1619    0.5984    0.0000 C.ar    1  UNL1        0.0373
      7 C           3.4377    2.5953    0.0000 C.3     1  UNL1       -0.0114
      8 C           3.3859    0.5915    0.0000 C.ar    1  UNL1        0.0359
      9 C           2.5722    2.1111    0.0000 C.3     1  UNL1        0.0131
     10 C           5.1780   -0.4431    0.0000 C.ar    1  UNL1       -0.0064
     11 C           6.0279    1.0984    0.0000 C.ar    1  UNL1        0.1745
     12 C           5.1619    2.5984    0.0000 C.ar    1  UNL1       -0.0123
     13 C           6.0279    2.0984    0.0000 C.ar    1  UNL1        0.1671
     14 C           4.2799   -0.9709    0.0000 C.ar    1  UNL1       -0.0154
     15 C           3.3779   -0.4501    0.0000 C.ar    1  UNL1       -0.0325
     16 C           6.1299   -0.9638    0.0000 C.ar    1  UNL1       -0.0533
     17 C           4.2716   -2.0559    0.0000 C.ar    1  UNL1       -0.0540
     18 C           7.5578    1.5984    0.0000 C.3     1  UNL1        0.2333
     19 C           6.1466   -2.0486    0.0000 C.ar    1  UNL1       -0.0611
     20 C           5.2112   -2.5984    0.0000 C.ar    1  UNL1       -0.0612
     21 H           3.8387    3.0681    0.0000 H       1  UNL1        0.0328
     22 H           3.0436    3.0740    0.0000 H       1  UNL1        0.0328
     23 H           2.3704    2.6974    0.0000 H       1  UNL1        0.0464
     24 H           1.9594    2.0168    0.0000 H       1  UNL1        0.0464
     25 H           2.0000    0.8271    0.0000 H       1  UNL1        0.1461
     26 H           5.1619    3.2184    0.0000 H       1  UNL1        0.0658
     27 H           2.8397   -0.7580    0.0000 H       1  UNL1        0.0642
     28 H           6.6608   -0.6435    0.0000 H       1  UNL1        0.0624
     29 H           8.0186    1.1836    0.0000 H       1  UNL1        0.1166
     30 H           8.0186    2.0131    0.0000 H       1  UNL1        0.1166
     31 H           3.7334   -2.3638    0.0000 H       1  UNL1        0.0624
     32 H           6.6871   -2.3524    0.0000 H       1  UNL1        0.0618
     33 H           5.2136   -3.2184    0.0000 H       1  UNL1        0.0618
@<TRIPOS>BOND
     1     1    11    1
     2     1    18    1
     3     2    13    1
     4     2    18    1
     5     3     8    1
     6     3     9    1
     7     3    25    1
     8     4     5   ar
     9     4     6   ar
    10     4     8   ar
    11     5     7    1
    12     5    12   ar
    13     6    10   ar
    14     6    11   ar
    15     7     9    1
    16     7    21    1
    17     7    22    1
    18     8    15   ar
    19     9    23    1
    20     9    24    1
    21    10    14   ar
    22    10    16   ar
    23    11    13   ar
    24    12    13   ar
    25    12    26    1
    26    14    15   ar
    27    14    17   ar
    28    15    27    1
    29    16    19   ar
    30    16    28    1
    31    17    20   ar
    32    17    31    1
    33    18    29    1
    34    18    30    1
    35    19    20   ar
    36    19    32    1
    37    20    33    1
