@<TRIPOS>MOLECULE
IMPHY014416
 105 106 0 0 0
SMALL
GASTEIGER

@<TRIPOS>ATOM
      1 O          17.0292   -0.0000    0.0000 O.3     1  UNL1       -0.3683
      2 O          15.0612   -0.6994    0.0000 O.3     1  UNL1       -0.3892
      3 O          18.9972   -0.6994    0.0000 O.3     1  UNL1       -0.3892
      4 O           6.1595    3.7430    0.0000 O.3     1  UNL1       -0.4611
      5 O           5.0380    5.1278    0.0000 O.2     1  UNL1       -0.2505
      6 O           9.9786    0.3809    0.0000 O.2     1  UNL1       -0.2974
      7 O           3.4013    1.7885    0.0000 O.2     1  UNL1       -0.2977
      8 C          16.2202    0.5878    0.0000 C.3     1  UNL1        0.0850
      9 C          17.8382    0.5878    0.0000 C.3     1  UNL1        0.0850
     10 C          16.5292    1.5388    0.0000 C.3     1  UNL1       -0.0217
     11 C          17.5292    1.5388    0.0000 C.3     1  UNL1       -0.0217
     12 C          15.2691    0.2787    0.0000 C.3     1  UNL1        0.0813
     13 C          18.7893    0.2787    0.0000 C.3     1  UNL1        0.0816
     14 C          14.5260    0.9479    0.0000 C.3     1  UNL1       -0.0244
     15 C          19.5324    0.9479    0.0000 C.3     1  UNL1       -0.0210
     16 C          13.5749    0.6389    0.0000 C.3     1  UNL1       -0.0506
     17 C          12.8318    1.3080    0.0000 C.3     1  UNL1       -0.0526
     18 C          20.4835    0.6389    0.0000 C.3     1  UNL1       -0.0323
     19 C           6.0550    2.7484    0.0000 C.3     1  UNL1        0.1039
     20 C           5.0768    2.5405    0.0000 C.3     1  UNL1       -0.0024
     21 C           4.5768    3.4066    0.0000 C.3     1  UNL1        0.0664
     22 C           6.7981    2.0793    0.0000 C.3     1  UNL1       -0.0156
     23 C          11.8807    0.9990    0.0000 C.3     1  UNL1       -0.0464
     24 C           7.7492    2.3883    0.0000 C.3     1  UNL1       -0.0493
     25 C          11.1376    1.6681    0.0000 C.3     1  UNL1        0.0058
     26 C           5.2460    4.1497    0.0000 C.2     1  UNL1        0.3110
     27 C           3.5823    3.5111    0.0000 C.3     1  UNL1        0.0186
     28 C           8.4923    1.7192    0.0000 C.3     1  UNL1       -0.0463
     29 C          21.2266    1.3080    0.0000 C.2     1  UNL1       -0.0878
     30 C           9.4434    2.0282    0.0000 C.3     1  UNL1        0.0058
     31 C          10.1865    1.3591    0.0000 C.2     1  UNL1        0.1334
     32 C          22.1777    0.9990    0.0000 C.2     1  UNL1       -0.0879
     33 C           2.9945    2.7021    0.0000 C.2     1  UNL1        0.1311
     34 C          22.3856    0.0208    0.0000 C.3     1  UNL1       -0.0348
     35 C          23.3366   -0.2882    0.0000 C.3     1  UNL1       -0.0496
     36 C          23.5446   -1.2664    0.0000 C.3     1  UNL1       -0.0528
     37 C           2.0000    2.8066    0.0000 C.3     1  UNL1       -0.0060
     38 C          24.4956   -1.5754    0.0000 C.3     1  UNL1       -0.0530
     39 C          24.7035   -2.5535    0.0000 C.3     1  UNL1       -0.0531
     40 C          25.6546   -2.8625    0.0000 C.3     1  UNL1       -0.0531
     41 C          25.8625   -3.8407    0.0000 C.3     1  UNL1       -0.0533
     42 C          26.8136   -4.1497    0.0000 C.3     1  UNL1       -0.0559
     43 C          27.0215   -5.1278    0.0000 C.3     1  UNL1       -0.0653
     44 H          16.0872   -0.2518    0.0000 H       1  UNL1        0.0622
     45 H          17.9712   -0.2518    0.0000 H       1  UNL1        0.0622
     46 H          16.5940    2.1554    0.0000 H       1  UNL1        0.0292
     47 H          15.9228    1.6677    0.0000 H       1  UNL1        0.0292
     48 H          18.1357    1.6677    0.0000 H       1  UNL1        0.0292
     49 H          17.4644    2.1554    0.0000 H       1  UNL1        0.0292
     50 H          14.6795    0.0871    0.0000 H       1  UNL1        0.0619
     51 H          19.3789    0.0871    0.0000 H       1  UNL1        0.0619
     52 H          15.0146    1.3296    0.0000 H       1  UNL1        0.0291
     53 H          14.2349    1.4953    0.0000 H       1  UNL1        0.0291
     54 H          19.8235    1.4953    0.0000 H       1  UNL1        0.0294
     55 H          19.0439    1.3296    0.0000 H       1  UNL1        0.0294
     56 H          13.0864    0.2571    0.0000 H       1  UNL1        0.0266
     57 H          13.8660    0.0914    0.0000 H       1  UNL1        0.0266
     58 H          13.3203    1.6897    0.0000 H       1  UNL1        0.0265
     59 H          12.5407    1.8554    0.0000 H       1  UNL1        0.0265
     60 H          20.1924    0.0914    0.0000 H       1  UNL1        0.0308
     61 H          20.9720    0.2571    0.0000 H       1  UNL1        0.0308
     62 H           6.6338    2.9706    0.0000 H       1  UNL1        0.0734
     63 H          14.4716   -0.8910    0.0000 H       1  UNL1        0.2099
     64 H           4.5104    2.2884    0.0000 H       1  UNL1        0.0309
     65 H           5.2684    1.9509    0.0000 H       1  UNL1        0.0309
     66 H           4.3546    3.9854    0.0000 H       1  UNL1        0.0419
     67 H          19.5868   -0.8910    0.0000 H       1  UNL1        0.2099
     68 H           6.3096    1.6976    0.0000 H       1  UNL1        0.0301
     69 H           7.0892    1.5319    0.0000 H       1  UNL1        0.0301
     70 H          11.3922    0.6173    0.0000 H       1  UNL1        0.0269
     71 H          12.1718    0.4515    0.0000 H       1  UNL1        0.0269
     72 H           8.2377    2.7700    0.0000 H       1  UNL1        0.0267
     73 H           7.4581    2.9358    0.0000 H       1  UNL1        0.0267
     74 H          11.6261    2.0498    0.0000 H       1  UNL1        0.0342
     75 H          10.8465    2.2155    0.0000 H       1  UNL1        0.0342
     76 H           3.7532    4.1071    0.0000 H       1  UNL1        0.0349
     77 H           3.0250    3.7829    0.0000 H       1  UNL1        0.0349
     78 H           8.0038    1.3375    0.0000 H       1  UNL1        0.0269
     79 H           8.7834    1.1718    0.0000 H       1  UNL1        0.0269
     80 H          21.0977    1.9144    0.0000 H       1  UNL1        0.0569
     81 H           9.9320    2.4099    0.0000 H       1  UNL1        0.0342
     82 H           9.1523    2.5756    0.0000 H       1  UNL1        0.0342
     83 H          22.6384    1.4138    0.0000 H       1  UNL1        0.0569
     84 H          21.7660   -0.0008    0.0000 H       1  UNL1        0.0307
     85 H          22.2993   -0.5932    0.0000 H       1  UNL1        0.0307
     86 H          23.9563   -0.2666    0.0000 H       1  UNL1        0.0268
     87 H          23.4229    0.3258    0.0000 H       1  UNL1        0.0268
     88 H          22.9249   -1.2880    0.0000 H       1  UNL1        0.0265
     89 H          23.4583   -1.8803    0.0000 H       1  UNL1        0.0265
     90 H           2.0648    3.4232    0.0000 H       1  UNL1        0.0306
     91 H           1.3834    2.8714    0.0000 H       1  UNL1        0.0306
     92 H           1.9352    2.1900    0.0000 H       1  UNL1        0.0306
     93 H          25.1152   -1.5537    0.0000 H       1  UNL1        0.0265
     94 H          24.5819   -0.9614    0.0000 H       1  UNL1        0.0265
     95 H          24.0839   -2.5752    0.0000 H       1  UNL1        0.0265
     96 H          24.6172   -3.1675    0.0000 H       1  UNL1        0.0265
     97 H          26.2742   -2.8409    0.0000 H       1  UNL1        0.0265
     98 H          25.7409   -2.2486    0.0000 H       1  UNL1        0.0265
     99 H          25.2429   -3.8623    0.0000 H       1  UNL1        0.0265
    100 H          25.7762   -4.4546    0.0000 H       1  UNL1        0.0265
    101 H          27.4332   -4.1281    0.0000 H       1  UNL1        0.0263
    102 H          26.8998   -3.5357    0.0000 H       1  UNL1        0.0263
    103 H          26.4150   -5.2568    0.0000 H       1  UNL1        0.0230
    104 H          27.1504   -5.7343    0.0000 H       1  UNL1        0.0230
    105 H          27.6279   -4.9989    0.0000 H       1  UNL1        0.0230
@<TRIPOS>BOND
     1     1     8    1
     2     1     9    1
     3    12     2    1
     4     2    63    1
     5    13     3    1
     6     3    67    1
     7     4    19    1
     8     4    26    1
     9     5    26    2
    10     6    31    2
    11     7    33    2
    12     8    10    1
    13     8    12    1
    14     8    44    1
    15     9    11    1
    16     9    13    1
    17     9    45    1
    18    10    11    1
    19    10    46    1
    20    10    47    1
    21    11    48    1
    22    11    49    1
    23    12    14    1
    24    12    50    1
    25    13    15    1
    26    13    51    1
    27    14    16    1
    28    14    52    1
    29    14    53    1
    30    15    18    1
    31    15    54    1
    32    15    55    1
    33    16    17    1
    34    16    56    1
    35    16    57    1
    36    17    23    1
    37    17    58    1
    38    17    59    1
    39    18    29    1
    40    18    60    1
    41    18    61    1
    42    19    20    1
    43    19    22    1
    44    19    62    1
    45    20    21    1
    46    20    64    1
    47    20    65    1
    48    21    26    1
    49    21    27    1
    50    21    66    1
    51    22    24    1
    52    22    68    1
    53    22    69    1
    54    23    25    1
    55    23    70    1
    56    23    71    1
    57    24    28    1
    58    24    72    1
    59    24    73    1
    60    25    31    1
    61    25    74    1
    62    25    75    1
    63    27    33    1
    64    27    76    1
    65    27    77    1
    66    28    30    1
    67    28    78    1
    68    28    79    1
    69    29    32    2
    70    29    80    1
    71    30    31    1
    72    30    81    1
    73    30    82    1
    74    32    34    1
    75    32    83    1
    76    33    37    1
    77    34    35    1
    78    34    84    1
    79    34    85    1
    80    35    36    1
    81    35    86    1
    82    35    87    1
    83    36    38    1
    84    36    88    1
    85    36    89    1
    86    37    90    1
    87    37    91    1
    88    37    92    1
    89    38    39    1
    90    38    93    1
    91    38    94    1
    92    39    40    1
    93    39    95    1
    94    39    96    1
    95    40    41    1
    96    40    97    1
    97    40    98    1
    98    41    42    1
    99    41    99    1
   100    41   100    1
   101    42    43    1
   102    42   101    1
   103    42   102    1
   104    43   103    1
   105    43   104    1
   106    43   105    1
