@<TRIPOS>MOLECULE
IMPHY002715
 57 57 0 0 0
SMALL
GASTEIGER

@<TRIPOS>ATOM
      1 O           8.5991    0.7500    0.0000 O.2     1  UNL1       -0.2970
      2 O           7.7331    2.2500    0.0000 O.2     1  UNL1       -0.2970
      3 O           4.2690    6.2500    0.0000 O.3     1  UNL1       -0.4915
      4 O           2.5369    5.2500    0.0000 O.3     1  UNL1       -0.5033
      5 C           9.4651   -2.7500    0.0000 C.3     1  UNL1       -0.0530
      6 C           9.4651   -3.7500    0.0000 C.3     1  UNL1       -0.0531
      7 C           8.5991   -2.2500    0.0000 C.3     1  UNL1       -0.0527
      8 C          10.3312   -4.2500    0.0000 C.3     1  UNL1       -0.0531
      9 C           8.5991   -1.2500    0.0000 C.3     1  UNL1       -0.0464
     10 C          10.3312   -5.2500    0.0000 C.3     1  UNL1       -0.0533
     11 C           7.7331   -0.7500    0.0000 C.3     1  UNL1        0.0062
     12 C          11.1972   -5.7500    0.0000 C.3     1  UNL1       -0.0559
     13 C           7.7331    0.2500    0.0000 C.2     1  UNL1        0.1404
     14 C           6.8671    0.7500    0.0000 C.3     1  UNL1        0.0643
     15 C          11.1972   -6.7500    0.0000 C.3     1  UNL1       -0.0653
     16 C           6.0010    2.2500    0.0000 C.3     1  UNL1        0.0102
     17 C           6.8671    1.7500    0.0000 C.2     1  UNL1        0.1407
     18 C           6.0010    3.2500    0.0000 C.3     1  UNL1       -0.0209
     19 C           5.1350    3.7500    0.0000 C.ar    1  UNL1       -0.0433
     20 C           5.1350    4.7500    0.0000 C.ar    1  UNL1       -0.0131
     21 C           4.2690    3.2500    0.0000 C.ar    1  UNL1       -0.0549
     22 C           4.2690    5.2500    0.0000 C.ar    1  UNL1        0.1615
     23 C           3.4030    3.7500    0.0000 C.ar    1  UNL1       -0.0163
     24 C           3.4030    4.7500    0.0000 C.ar    1  UNL1        0.1585
     25 C           5.1350    6.7500    0.0000 C.3     1  UNL1        0.0790
     26 H          10.0757   -2.8577    0.0000 H       1  UNL1        0.0265
     27 H           9.6772   -2.1674    0.0000 H       1  UNL1        0.0265
     28 H           8.8546   -3.6423    0.0000 H       1  UNL1        0.0265
     29 H           9.2531   -4.3326    0.0000 H       1  UNL1        0.0265
     30 H           7.9885   -2.1423    0.0000 H       1  UNL1        0.0265
     31 H           8.3871   -2.8326    0.0000 H       1  UNL1        0.0265
     32 H          10.9417   -4.3577    0.0000 H       1  UNL1        0.0265
     33 H          10.5432   -3.6674    0.0000 H       1  UNL1        0.0265
     34 H           9.2097   -1.3577    0.0000 H       1  UNL1        0.0269
     35 H           8.8112   -0.6674    0.0000 H       1  UNL1        0.0269
     36 H           9.7206   -5.1423    0.0000 H       1  UNL1        0.0265
     37 H          10.1191   -5.8326    0.0000 H       1  UNL1        0.0265
     38 H           7.1225   -0.6423    0.0000 H       1  UNL1        0.0342
     39 H           7.5210   -1.3326    0.0000 H       1  UNL1        0.0342
     40 H          11.8078   -5.8577    0.0000 H       1  UNL1        0.0263
     41 H          11.4092   -5.1674    0.0000 H       1  UNL1        0.0263
     42 H           6.2565    0.8577    0.0000 H       1  UNL1        0.0419
     43 H           6.6550    0.1674    0.0000 H       1  UNL1        0.0419
     44 H          10.5772   -6.7500    0.0000 H       1  UNL1        0.0230
     45 H          11.1972   -7.3700    0.0000 H       1  UNL1        0.0230
     46 H          11.8172   -6.7500    0.0000 H       1  UNL1        0.0230
     47 H           5.3905    2.3577    0.0000 H       1  UNL1        0.0345
     48 H           5.7890    1.6674    0.0000 H       1  UNL1        0.0345
     49 H           6.6116    3.1423    0.0000 H       1  UNL1        0.0317
     50 H           6.2131    3.8326    0.0000 H       1  UNL1        0.0317
     51 H           5.6720    5.0600    0.0000 H       1  UNL1        0.0658
     52 H           4.2690    2.6300    0.0000 H       1  UNL1        0.0621
     53 H           2.8660    3.4400    0.0000 H       1  UNL1        0.0655
     54 H           2.0000    4.9400    0.0000 H       1  UNL1        0.2923
     55 H           5.4450    6.2131    0.0000 H       1  UNL1        0.0660
     56 H           5.6720    7.0600    0.0000 H       1  UNL1        0.0660
     57 H           4.8250    7.2869    0.0000 H       1  UNL1        0.0660
@<TRIPOS>BOND
     1     1    13    2
     2     2    17    2
     3     3    22    1
     4     3    25    1
     5     4    24    1
     6     4    54    1
     7     5     6    1
     8     5     7    1
     9     5    26    1
    10     5    27    1
    11     6     8    1
    12     6    28    1
    13     6    29    1
    14     7     9    1
    15     7    30    1
    16     7    31    1
    17     8    10    1
    18     8    32    1
    19     8    33    1
    20     9    11    1
    21     9    34    1
    22     9    35    1
    23    10    12    1
    24    10    36    1
    25    10    37    1
    26    11    13    1
    27    11    38    1
    28    11    39    1
    29    12    15    1
    30    12    40    1
    31    12    41    1
    32    13    14    1
    33    14    17    1
    34    14    42    1
    35    14    43    1
    36    15    44    1
    37    15    45    1
    38    15    46    1
    39    16    17    1
    40    16    18    1
    41    16    47    1
    42    16    48    1
    43    18    19    1
    44    18    49    1
    45    18    50    1
    46    19    20   ar
    47    19    21   ar
    48    20    22   ar
    49    20    51    1
    50    21    23   ar
    51    21    52    1
    52    22    24   ar
    53    23    24   ar
    54    23    53    1
    55    25    55    1
    56    25    56    1
    57    25    57    1
