@<TRIPOS>MOLECULE
IMPHY001140
 79 82 0 0 0
SMALL
GASTEIGER

@<TRIPOS>ATOM
      1 O           7.4149   -2.6091    0.0000 O.3     1  UNL1       -0.4606
      2 O           9.9229   -0.0776    0.0000 O.2     1  UNL1       -0.2923
      3 O           2.0000   -2.6299    0.0000 O.2     1  UNL1       -0.2921
      4 O           6.5662   -4.1190    0.0000 O.2     1  UNL1       -0.2512
      5 O          11.2283    3.9911    0.0000 O.3     1  UNL1       -0.3921
      6 C           6.5271   -1.0776    0.0000 C.3     1  UNL1        0.0304
      7 C           5.6610   -0.5776    0.0000 C.3     1  UNL1       -0.0194
      8 C           4.7510   -1.0844    0.0000 C.3     1  UNL1       -0.0061
      9 C           4.7430   -2.1261    0.0000 C.3     1  UNL1       -0.0164
     10 C           7.3931    0.4224    0.0000 C.3     1  UNL1        0.0000
     11 C           7.3931   -0.5776    0.0000 C.2     1  UNL1       -0.0500
     12 C           6.5431   -2.1191    0.0000 C.3     1  UNL1        0.1126
     13 C           5.6610    0.4224    0.0000 C.3     1  UNL1       -0.0477
     14 C           5.6451   -2.6469    0.0000 C.3     1  UNL1       -0.0103
     15 C           6.5271    0.9224    0.0000 C.3     1  UNL1       -0.0429
     16 C           8.3393    0.7271    0.0000 C.3     1  UNL1        0.0332
     17 C           3.8076   -2.6758    0.0000 C.3     1  UNL1        0.0311
     18 C           7.3931   -1.5776    0.0000 C.3     1  UNL1       -0.0521
     19 C           4.7587   -0.0845    0.0000 C.3     1  UNL1       -0.0555
     20 C           3.8242   -0.5204    0.0000 C.2     1  UNL1       -0.0742
     21 C           8.3393   -0.8823    0.0000 C.2     1  UNL1       -0.0185
     22 C           7.3931    1.4224    0.0000 C.3     1  UNL1       -0.0551
     23 C           8.9229   -0.0776    0.0000 C.2     1  UNL1        0.1602
     24 C           8.6500    1.6776    0.0000 C.3     1  UNL1       -0.0332
     25 C           2.8680   -2.1333    0.0000 C.2     1  UNL1        0.1617
     26 C           2.8763   -1.0483    0.0000 C.2     1  UNL1       -0.0221
     27 C           3.3109   -3.5437    0.0000 C.3     1  UNL1       -0.0525
     28 C           4.3109   -3.5399    0.0000 C.3     1  UNL1       -0.0525
     29 C           9.6285    1.8839    0.0000 C.3     1  UNL1       -0.0475
     30 C           7.9821    2.4220    0.0000 C.3     1  UNL1       -0.0617
     31 C           7.4264   -3.6090    0.0000 C.2     1  UNL1        0.3042
     32 C           9.9391    2.8344    0.0000 C.3     1  UNL1       -0.0269
     33 C          10.9176    3.0406    0.0000 C.3     1  UNL1        0.0525
     34 C           8.2982   -4.0990    0.0000 C.3     1  UNL1        0.0332
     35 C          11.5855    2.2963    0.0000 C.3     1  UNL1       -0.0389
     36 H           6.3972   -0.1526    0.0000 H       1  UNL1        0.0319
     37 H           4.7463   -2.9760    0.0000 H       1  UNL1        0.0320
     38 H           6.5491   -2.7391    0.0000 H       1  UNL1        0.0743
     39 H           5.4490    1.0050    0.0000 H       1  UNL1        0.0269
     40 H           5.0504    0.3147    0.0000 H       1  UNL1        0.0269
     41 H           5.2478   -3.1228    0.0000 H       1  UNL1        0.0304
     42 H           6.0460   -3.1198    0.0000 H       1  UNL1        0.0304
     43 H           6.9256    1.3973    0.0000 H       1  UNL1        0.0274
     44 H           6.1285    1.3973    0.0000 H       1  UNL1        0.0274
     45 H           9.1790    0.8590    0.0000 H       1  UNL1        0.0392
     46 H           7.0831   -2.1145    0.0000 H       1  UNL1        0.0239
     47 H           7.9300   -1.8876    0.0000 H       1  UNL1        0.0239
     48 H           7.7031   -1.0407    0.0000 H       1  UNL1        0.0239
     49 H           5.3787   -0.0893    0.0000 H       1  UNL1        0.0238
     50 H           4.7635    0.5355    0.0000 H       1  UNL1        0.0238
     51 H           4.1388   -0.0797    0.0000 H       1  UNL1        0.0238
     52 H           3.8361    0.0995    0.0000 H       1  UNL1        0.0579
     53 H           8.5319   -1.4717    0.0000 H       1  UNL1        0.0652
     54 H           8.0131    1.4224    0.0000 H       1  UNL1        0.0238
     55 H           7.3931    2.0424    0.0000 H       1  UNL1        0.0238
     56 H           6.7731    1.4224    0.0000 H       1  UNL1        0.0238
     57 H           8.0433    1.5498    0.0000 H       1  UNL1        0.0305
     58 H           2.3430   -0.7321    0.0000 H       1  UNL1        0.0649
     59 H           3.7752   -3.8519    0.0000 H       1  UNL1        0.0239
     60 H           2.7728   -3.2358    0.0000 H       1  UNL1        0.0239
     61 H           3.0030   -4.0818    0.0000 H       1  UNL1        0.0239
     62 H           3.8490   -3.8516    0.0000 H       1  UNL1        0.0239
     63 H           4.6230   -4.0756    0.0000 H       1  UNL1        0.0239
     64 H           4.8466   -3.2278    0.0000 H       1  UNL1        0.0239
     65 H           9.6490    1.2642    0.0000 H       1  UNL1        0.0269
     66 H          10.2423    1.7965    0.0000 H       1  UNL1        0.0269
     67 H           8.4436    2.8360    0.0000 H       1  UNL1        0.0233
     68 H           7.5681    2.8834    0.0000 H       1  UNL1        0.0233
     69 H           7.5207    2.0079    0.0000 H       1  UNL1        0.0233
     70 H           9.9186    3.4540    0.0000 H       1  UNL1        0.0290
     71 H           9.3253    2.9217    0.0000 H       1  UNL1        0.0290
     72 H          10.5036    3.5021    0.0000 H       1  UNL1        0.0590
     73 H           7.9944   -4.6394    0.0000 H       1  UNL1        0.0342
     74 H           8.8387   -4.4027    0.0000 H       1  UNL1        0.0342
     75 H           8.6020   -3.5585    0.0000 H       1  UNL1        0.0342
     76 H          11.1240    1.8822    0.0000 H       1  UNL1        0.0254
     77 H          11.9995    1.8348    0.0000 H       1  UNL1        0.0254
     78 H          12.0470    2.7104    0.0000 H       1  UNL1        0.0254
     79 H          11.8350    4.1190    0.0000 H       1  UNL1        0.2098
@<TRIPOS>BOND
     1    12     1    1
     2     1    31    1
     3     2    23    2
     4     3    25    2
     5     4    31    2
     6     5    33    1
     7     5    79    1
     8     6     7    1
     9     6    11    1
    10     6    12    1
    11     6    18    1
    12     7     8    1
    13     7    13    1
    14     7    36    1
    15     8     9    1
    16     8    19    1
    17     8    20    1
    18     9    14    1
    19     9    17    1
    20     9    37    1
    21    10    11    1
    22    10    15    1
    23    10    16    1
    24    10    22    1
    25    11    21    2
    26    12    14    1
    27    12    38    1
    28    13    15    1
    29    13    39    1
    30    13    40    1
    31    14    41    1
    32    14    42    1
    33    15    43    1
    34    15    44    1
    35    16    23    1
    36    16    24    1
    37    16    45    1
    38    17    25    1
    39    17    27    1
    40    17    28    1
    41    18    46    1
    42    18    47    1
    43    18    48    1
    44    19    49    1
    45    19    50    1
    46    19    51    1
    47    20    26    2
    48    20    52    1
    49    21    23    1
    50    21    53    1
    51    22    54    1
    52    22    55    1
    53    22    56    1
    54    24    29    1
    55    24    30    1
    56    24    57    1
    57    25    26    1
    58    26    58    1
    59    27    60    1
    60    27    61    1
    61    27    62    1
    62    28    59    1
    63    28    63    1
    64    28    64    1
    65    29    32    1
    66    29    65    1
    67    29    66    1
    68    30    67    1
    69    30    68    1
    70    30    69    1
    71    31    34    1
    72    32    33    1
    73    32    70    1
    74    32    71    1
    75    33    35    1
    76    33    72    1
    77    34    73    1
    78    34    74    1
    79    34    75    1
    80    35    76    1
    81    35    77    1
    82    35    78    1
