@<TRIPOS>MOLECULE
IMPHY007880
 37 38 0 0 0
SMALL
GASTEIGER

@<TRIPOS>ATOM
      1 O           2.0000    2.1900    0.0000 O.3     1  UNL1       -0.3891
      2 O           3.7320   -1.8100    0.0000 O.3     1  UNL1       -0.4947
      3 O           7.2241   -1.8447    0.0000 O.2     1  UNL1       -0.4220
      4 O           8.9942   -1.8342    0.0000 O.2     1  UNL1       -0.2452
      5 C           2.8660    1.6900    0.0000 C.3     1  UNL1        0.0608
      6 C           3.7320    1.1900    0.0000 C.3     1  UNL1       -0.0204
      7 C           3.7320    0.1900    0.0000 C.3     1  UNL1       -0.0216
      8 C           4.5981   -0.3100    0.0000 C.ar    1  UNL1       -0.0048
      9 C           3.3660    2.5560    0.0000 C.3     1  UNL1       -0.0363
     10 C           2.3660    0.8240    0.0000 C.3     1  UNL1       -0.0363
     11 C           4.5981   -1.3100    0.0000 C.ar    1  UNL1        0.1268
     12 C           5.4641    0.1900    0.0000 C.ar    1  UNL1       -0.0444
     13 C           6.3301   -0.3100    0.0000 C.ar    1  UNL1        0.0181
     14 C           6.3301   -1.3100    0.0000 C.ar    1  UNL1        0.1425
     15 C           5.4641   -1.8100    0.0000 C.ar    1  UNL1        0.0233
     16 C           7.2241    0.2247    0.0000 C.ar    1  UNL1       -0.0443
     17 C           8.1301   -0.2892    0.0000 C.ar    1  UNL1        0.0236
     18 C           8.1301   -1.3308    0.0000 C.ar    1  UNL1        0.3372
     19 C           3.7320   -2.8100    0.0000 C.3     1  UNL1        0.0788
     20 H           4.3426    1.0823    0.0000 H       1  UNL1        0.0296
     21 H           3.9441    1.7726    0.0000 H       1  UNL1        0.0296
     22 H           3.1215    0.2977    0.0000 H       1  UNL1        0.0315
     23 H           3.5200   -0.3926    0.0000 H       1  UNL1        0.0315
     24 H           1.8291    1.1340    0.0000 H       1  UNL1        0.0257
     25 H           3.9030    2.2460    0.0000 H       1  UNL1        0.0257
     26 H           3.6760    3.0930    0.0000 H       1  UNL1        0.0257
     27 H           2.8291    2.8660    0.0000 H       1  UNL1        0.0257
     28 H           2.0560    0.2870    0.0000 H       1  UNL1        0.0257
     29 H           2.9030    0.5140    0.0000 H       1  UNL1        0.0257
     30 H           5.4641    0.8100    0.0000 H       1  UNL1        0.0628
     31 H           2.0000    2.8100    0.0000 H       1  UNL1        0.2101
     32 H           5.4641   -2.4300    0.0000 H       1  UNL1        0.0691
     33 H           7.2169    0.8446    0.0000 H       1  UNL1        0.0627
     34 H           8.6659    0.0229    0.0000 H       1  UNL1        0.0689
     35 H           3.1120   -2.8100    0.0000 H       1  UNL1        0.0660
     36 H           3.7320   -3.4300    0.0000 H       1  UNL1        0.0660
     37 H           4.3520   -2.8100    0.0000 H       1  UNL1        0.0660
@<TRIPOS>BOND
     1     1     5    1
     2     1    31    1
     3     2    11    1
     4     2    19    1
     5     3    14   ar
     6     3    18   ar
     7     4    18    2
     8     5     6    1
     9     5     9    1
    10     5    10    1
    11     6     7    1
    12     6    20    1
    13     6    21    1
    14     7     8    1
    15     7    22    1
    16     7    23    1
    17     8    11   ar
    18     8    12   ar
    19     9    25    1
    20     9    26    1
    21     9    27    1
    22    10    24    1
    23    10    28    1
    24    10    29    1
    25    11    15   ar
    26    12    13   ar
    27    12    30    1
    28    13    14   ar
    29    13    16   ar
    30    14    15   ar
    31    15    32    1
    32    16    17   ar
    33    16    33    1
    34    17    18   ar
    35    17    34    1
    36    19    35    1
    37    19    36    1
    38    19    37    1
