@<TRIPOS>MOLECULE
IMPHY002478
 55 59 0 0 0
SMALL
GASTEIGER

@<TRIPOS>ATOM
      1 O           6.1561    3.0248    0.0000 O.3     1  UNL1       -0.4854
      2 O           7.8093   -0.4373    0.0000 O.3     1  UNL1       -0.4847
      3 O           3.9562    0.1480    0.0000 O.3     1  UNL1       -0.5058
      4 O           6.4855   -1.5534    0.0000 O.2     1  UNL1       -0.2870
      5 C           9.2022    1.5754    0.0000 C.3     1  UNL1        0.0057
      6 C           7.9305    2.3700    0.0000 C.3     1  UNL1        0.0011
      7 C           8.1893    3.3359    0.0000 C.3     1  UNL1        0.1085
      8 C           7.4527    4.3185    0.0000 C.3     1  UNL1       -0.0057
      9 C           9.9794    2.2047    0.0000 C.3     1  UNL1       -0.0424
     10 C           9.1405    0.1776    0.0000 C.3     1  UNL1        0.1085
     11 C           9.6210    3.1383    0.0000 C.3     1  UNL1       -0.0128
     12 C           6.7095    1.5043    0.0000 C.ar    1  UNL1        0.0404
     13 C           5.8805    2.0635    0.0000 C.ar    1  UNL1        0.1317
     14 C           6.6529    0.4643    0.0000 C.ar    1  UNL1        0.1425
     15 C           8.4482    4.3019    0.0000 C.3     1  UNL1       -0.0249
     16 C           9.5814   -0.7199    0.0000 C.3     1  UNL1       -0.0249
     17 C          10.1383    0.1107    0.0000 C.3     1  UNL1       -0.0249
     18 C           5.7202    0.0004    0.0000 C.ar    1  UNL1        0.1050
     19 C           4.9373    1.6214    0.0000 C.ar    1  UNL1        0.0228
     20 C           4.8567    0.5829    0.0000 C.ar    1  UNL1        0.1347
     21 C           5.6543   -0.9974    0.0000 C.2     1  UNL1        0.1931
     22 C           4.7572   -1.4392    0.0000 C.2     1  UNL1       -0.0135
     23 C           4.6913   -2.4370    0.0000 C.2     1  UNL1       -0.0510
     24 C           3.7942   -2.8789    0.0000 C.ar    1  UNL1       -0.0249
     25 C           2.9630   -2.3229    0.0000 C.ar    1  UNL1       -0.0546
     26 C           3.7283   -3.8767    0.0000 C.ar    1  UNL1       -0.0546
     27 C           2.0659   -2.7647    0.0000 C.ar    1  UNL1       -0.0612
     28 C           2.8312   -4.3185    0.0000 C.ar    1  UNL1       -0.0612
     29 C           2.0000   -3.7626    0.0000 C.ar    1  UNL1       -0.0617
     30 H           9.2467    0.7265    0.0000 H       1  UNL1        0.0345
     31 H           8.6240    2.8616    0.0000 H       1  UNL1        0.0356
     32 H           7.7705    4.8509    0.0000 H       1  UNL1        0.0310
     33 H           6.8396    4.4105    0.0000 H       1  UNL1        0.0310
     34 H          10.3170    1.6847    0.0000 H       1  UNL1        0.0271
     35 H          10.5318    2.4862    0.0000 H       1  UNL1        0.0271
     36 H          10.2288    3.2606    0.0000 H       1  UNL1        0.0304
     37 H           9.6020    3.7580    0.0000 H       1  UNL1        0.0304
     38 H           9.0470    4.1414    0.0000 H       1  UNL1        0.0268
     39 H           8.6086    4.9007    0.0000 H       1  UNL1        0.0268
     40 H           7.8493    4.4623    0.0000 H       1  UNL1        0.0268
     41 H           9.0249   -0.9933    0.0000 H       1  UNL1        0.0268
     42 H           9.8548   -1.2764    0.0000 H       1  UNL1        0.0268
     43 H          10.1379   -0.4466    0.0000 H       1  UNL1        0.0268
     44 H          10.0968   -0.5079    0.0000 H       1  UNL1        0.0268
     45 H          10.7569    0.0692    0.0000 H       1  UNL1        0.0268
     46 H          10.1798    0.7293    0.0000 H       1  UNL1        0.0268
     47 H           4.4274    1.9740    0.0000 H       1  UNL1        0.0691
     48 H           3.4435    0.4967    0.0000 H       1  UNL1        0.2922
     49 H           4.2419   -1.0945    0.0000 H       1  UNL1        0.0656
     50 H           5.2066   -2.7818    0.0000 H       1  UNL1        0.0625
     51 H           3.0039   -1.7042    0.0000 H       1  UNL1        0.0623
     52 H           4.2436   -4.2214    0.0000 H       1  UNL1        0.0623
     53 H           1.5506   -2.4200    0.0000 H       1  UNL1        0.0618
     54 H           2.7903   -4.9372    0.0000 H       1  UNL1        0.0618
     55 H           1.4438   -4.0365    0.0000 H       1  UNL1        0.0618
@<TRIPOS>BOND
     1     1     7    1
     2     1    13    1
     3     2    10    1
     4     2    14    1
     5     3    20    1
     6     3    48    1
     7     4    21    2
     8     5     6    1
     9     5     9    1
    10     5    10    1
    11     5    30    1
    12     6     8    1
    13     6    12    1
    14     6    31    1
    15     7     8    1
    16     7    11    1
    17     7    15    1
    18     8    32    1
    19     8    33    1
    20     9    11    1
    21     9    34    1
    22     9    35    1
    23    10    16    1
    24    10    17    1
    25    11    36    1
    26    11    37    1
    27    12    13   ar
    28    12    14   ar
    29    13    19   ar
    30    14    18   ar
    31    15    38    1
    32    15    39    1
    33    15    40    1
    34    16    41    1
    35    16    42    1
    36    16    43    1
    37    17    44    1
    38    17    45    1
    39    17    46    1
    40    18    20   ar
    41    18    21    1
    42    19    20   ar
    43    19    47    1
    44    21    22    1
    45    22    23    2
    46    22    49    1
    47    23    24    1
    48    23    50    1
    49    24    25   ar
    50    24    26   ar
    51    25    27   ar
    52    25    51    1
    53    26    28   ar
    54    26    52    1
    55    27    29   ar
    56    27    53    1
    57    28    29   ar
    58    28    54    1
    59    29    55    1
