@<TRIPOS>MOLECULE
IMPHY012436
 69 74 0 0 0
SMALL
GASTEIGER

@<TRIPOS>ATOM
      1 O           5.2680   -0.0844    0.0000 O.3     1  UNL1       -0.3688
      2 O           5.5161    2.1939    0.0000 O.3     1  UNL1       -0.4586
      3 O           2.9059    4.7632    0.0000 O.2     1  UNL1       -0.2921
      4 O           3.1447   -4.7632    0.0000 O.2     1  UNL1       -0.4708
      5 O           6.3821    0.6939    0.0000 O.2     1  UNL1       -0.2512
      6 C           3.7841    0.1939    0.0000 C.3     1  UNL1        0.0069
      7 C           3.8001   -0.8476    0.0000 C.3     1  UNL1       -0.0006
      8 C           2.9021   -1.3754    0.0000 C.3     1  UNL1       -0.0193
      9 C           2.9180    0.6939    0.0000 C.3     1  UNL1       -0.0235
     10 C           4.6501    0.6939    0.0000 C.3     1  UNL1        0.1021
     11 C           4.7881   -0.9547    0.0000 C.3     1  UNL1        0.0637
     12 C           2.9180    1.6939    0.0000 C.3     1  UNL1       -0.0031
     13 C           3.5406   -2.2060    0.0000 C.3     1  UNL1       -0.0048
     14 C           3.7841    2.1939    0.0000 C.3     1  UNL1        0.0199
     15 C           2.0000   -0.8545    0.0000 C.3     1  UNL1       -0.0464
     16 C           2.0080    0.1871    0.0000 C.3     1  UNL1       -0.0483
     17 C           4.6501    1.6939    0.0000 C.3     1  UNL1        0.1340
     18 C           4.5631   -1.9780    0.0000 C.3     1  UNL1       -0.0188
     19 C           2.9180   -0.3061    0.0000 C.3     1  UNL1       -0.0564
     20 C           2.0399   -1.8820    0.0000 C.3     1  UNL1       -0.0587
     21 C           3.8001    3.2354    0.0000 C.3     1  UNL1        0.0344
     22 C           2.0520    1.1939    0.0000 C.3     1  UNL1       -0.0554
     23 C           2.0080    2.2008    0.0000 C.2     1  UNL1       -0.0741
     24 C           3.1995   -3.1461    0.0000 C.ar    1  UNL1       -0.0060
     25 C           2.9021    3.7632    0.0000 C.2     1  UNL1        0.1618
     26 C           2.0000    3.2424    0.0000 C.2     1  UNL1       -0.0220
     27 C           4.3101    4.0956    0.0000 C.3     1  UNL1       -0.0524
     28 C           4.8000    3.2239    0.0000 C.3     1  UNL1       -0.0524
     29 C           2.2385   -3.4227    0.0000 C.ar    1  UNL1       -0.0205
     30 C           3.7596   -3.9745    0.0000 C.ar    1  UNL1        0.0951
     31 C           6.3821    1.6939    0.0000 C.2     1  UNL1        0.3043
     32 C           2.2046   -4.4221    0.0000 C.ar    1  UNL1        0.0919
     33 C           7.2482    2.1939    0.0000 C.3     1  UNL1        0.0332
     34 H           3.9304   -1.4538    0.0000 H       1  UNL1        0.0337
     35 H           3.6542    1.1189    0.0000 H       1  UNL1        0.0315
     36 H           5.4527    0.9738    0.0000 H       1  UNL1        0.0639
     37 H           5.3684   -1.1732    0.0000 H       1  UNL1        0.0599
     38 H           3.9499   -2.6717    0.0000 H       1  UNL1        0.0356
     39 H           4.5234    2.6132    0.0000 H       1  UNL1        0.0355
     40 H           1.3900   -0.7437    0.0000 H       1  UNL1        0.0271
     41 H           1.7864   -1.4366    0.0000 H       1  UNL1        0.0271
     42 H           1.8035    0.7724    0.0000 H       1  UNL1        0.0269
     43 H           1.3964    0.0857    0.0000 H       1  UNL1        0.0269
     44 H           5.1870    1.3839    0.0000 H       1  UNL1        0.0764
     45 H           4.6090   -2.5963    0.0000 H       1  UNL1        0.0296
     46 H           5.1816   -2.0221    0.0000 H       1  UNL1        0.0296
     47 H           2.6080    0.2308    0.0000 H       1  UNL1        0.0236
     48 H           2.3811   -0.6161    0.0000 H       1  UNL1        0.0236
     49 H           3.2280   -0.8430    0.0000 H       1  UNL1        0.0236
     50 H           1.7258   -1.3475    0.0000 H       1  UNL1        0.0235
     51 H           1.5054   -2.1961    0.0000 H       1  UNL1        0.0235
     52 H           2.3541   -2.4165    0.0000 H       1  UNL1        0.0235
     53 H           1.7420    1.7308    0.0000 H       1  UNL1        0.0238
     54 H           1.5151    0.8839    0.0000 H       1  UNL1        0.0238
     55 H           2.3620    0.6570    0.0000 H       1  UNL1        0.0238
     56 H           1.4747    1.8846    0.0000 H       1  UNL1        0.0579
     57 H           1.4619    3.5503    0.0000 H       1  UNL1        0.0649
     58 H           4.8434    3.7794    0.0000 H       1  UNL1        0.0239
     59 H           4.6263    4.6289    0.0000 H       1  UNL1        0.0239
     60 H           3.7768    4.4118    0.0000 H       1  UNL1        0.0239
     61 H           4.7929    2.6039    0.0000 H       1  UNL1        0.0239
     62 H           5.4200    3.2167    0.0000 H       1  UNL1        0.0239
     63 H           4.8072    3.8438    0.0000 H       1  UNL1        0.0239
     64 H           1.7496   -3.0415    0.0000 H       1  UNL1        0.0652
     65 H           4.3792   -3.9955    0.0000 H       1  UNL1        0.1032
     66 H           1.6910   -4.7694    0.0000 H       1  UNL1        0.1029
     67 H           7.5582    1.6570    0.0000 H       1  UNL1        0.0342
     68 H           7.7851    2.5039    0.0000 H       1  UNL1        0.0342
     69 H           6.9382    2.7309    0.0000 H       1  UNL1        0.0342
@<TRIPOS>BOND
     1     1    10    1
     2     1    11    1
     3    17     2    1
     4     2    31    1
     5     3    25    2
     6     4    30   ar
     7     4    32   ar
     8     5    31    2
     9     6     7    1
    10     6     9    1
    11     6    10    1
    12     6    19    1
    13     7     8    1
    14     7    11    1
    15     7    34    1
    16     8    13    1
    17     8    15    1
    18     8    20    1
    19     9    12    1
    20     9    16    1
    21     9    35    1
    22    10    17    1
    23    10    36    1
    24    11    18    1
    25    11    37    1
    26    12    14    1
    27    12    22    1
    28    12    23    1
    29    13    18    1
    30    13    24    1
    31    13    38    1
    32    14    17    1
    33    14    21    1
    34    14    39    1
    35    15    16    1
    36    15    40    1
    37    15    41    1
    38    16    42    1
    39    16    43    1
    40    17    44    1
    41    18    45    1
    42    18    46    1
    43    19    47    1
    44    19    48    1
    45    19    49    1
    46    20    50    1
    47    20    51    1
    48    20    52    1
    49    21    25    1
    50    21    27    1
    51    21    28    1
    52    22    53    1
    53    22    54    1
    54    22    55    1
    55    23    26    2
    56    23    56    1
    57    24    29   ar
    58    24    30   ar
    59    25    26    1
    60    26    57    1
    61    27    58    1
    62    27    59    1
    63    27    60    1
    64    28    61    1
    65    28    62    1
    66    28    63    1
    67    29    32   ar
    68    29    64    1
    69    30    65    1
    70    31    33    1
    71    32    66    1
    72    33    67    1
    73    33    68    1
    74    33    69    1
