@<TRIPOS>MOLECULE
IMPHY000079
 38 40 0 0 0
SMALL
GASTEIGER

@<TRIPOS>ATOM
      1 O          10.0641   -0.5247    0.0000 O.3     1  UNL1       -0.3884
      2 O           8.1465    2.0346    0.0000 O.3     1  UNL1       -0.3870
      3 O           6.3981   -2.0000    0.0000 O.2     1  UNL1       -0.2868
      4 O           6.3981    2.0000    0.0000 O.2     1  UNL1       -0.2869
      5 O           4.6497   -2.0346    0.0000 O.3     1  UNL1       -0.5059
      6 O           2.8680    1.0241    0.0000 O.3     1  UNL1       -0.4950
      7 C           9.0641   -0.5208    0.0000 C.3     1  UNL1        0.0701
      8 C           9.0641    0.5208    0.0000 C.3     1  UNL1        0.0065
      9 C           8.1580   -1.0347    0.0000 C.3     1  UNL1        0.0052
     10 C           8.1580    1.0347    0.0000 C.3     1  UNL1        0.0867
     11 C           7.2641   -0.5000    0.0000 C.2     1  UNL1        0.0120
     12 C           7.2641    0.5000    0.0000 C.2     1  UNL1        0.0351
     13 C           9.5608   -1.3888    0.0000 C.3     1  UNL1       -0.0357
     14 C           6.3981   -1.0000    0.0000 C.2     1  UNL1        0.1939
     15 C           6.3981    1.0000    0.0000 C.2     1  UNL1        0.1929
     16 C           5.5320   -0.5000    0.0000 C.ar    1  UNL1        0.0743
     17 C           5.5320    0.5000    0.0000 C.ar    1  UNL1        0.0398
     18 C           4.6381   -1.0347    0.0000 C.ar    1  UNL1        0.1318
     19 C           4.6381    1.0347    0.0000 C.ar    1  UNL1       -0.0082
     20 C           3.7320    0.5208    0.0000 C.ar    1  UNL1        0.1243
     21 C           3.7320   -0.5208    0.0000 C.ar    1  UNL1        0.0223
     22 C           2.0000    0.5275    0.0000 C.3     1  UNL1        0.0788
     23 H           9.6750    0.4147    0.0000 H       1  UNL1        0.0321
     24 H           9.2732    1.1045    0.0000 H       1  UNL1        0.0321
     25 H           7.7534   -1.5044    0.0000 H       1  UNL1        0.0342
     26 H           8.5517   -1.5137    0.0000 H       1  UNL1        0.0342
     27 H           7.6170    1.3374    0.0000 H       1  UNL1        0.0646
     28 H           9.0226   -1.6967    0.0000 H       1  UNL1        0.0257
     29 H           9.8687   -1.9269    0.0000 H       1  UNL1        0.0257
     30 H          10.0989   -1.0808    0.0000 H       1  UNL1        0.0257
     31 H          10.3762    0.0111    0.0000 H       1  UNL1        0.2102
     32 H           8.6798    2.3508    0.0000 H       1  UNL1        0.2102
     33 H           4.6453    1.6546    0.0000 H       1  UNL1        0.0661
     34 H           3.1963   -0.8329    0.0000 H       1  UNL1        0.0691
     35 H           4.1164   -2.3508    0.0000 H       1  UNL1        0.2922
     36 H           1.6921    1.0656    0.0000 H       1  UNL1        0.0660
     37 H           1.4619    0.2196    0.0000 H       1  UNL1        0.0660
     38 H           2.3079   -0.0106    0.0000 H       1  UNL1        0.0660
@<TRIPOS>BOND
     1     7     1    1
     2     1    31    1
     3    10     2    1
     4     2    32    1
     5     3    14    2
     6     4    15    2
     7     5    18    1
     8     5    35    1
     9     6    20    1
    10     6    22    1
    11     7     8    1
    12     7     9    1
    13     7    13    1
    14     8    10    1
    15     8    23    1
    16     8    24    1
    17     9    11    1
    18     9    25    1
    19     9    26    1
    20    10    12    1
    21    10    27    1
    22    11    12    2
    23    11    14    1
    24    12    15    1
    25    13    28    1
    26    13    29    1
    27    13    30    1
    28    14    16    1
    29    15    17    1
    30    16    17   ar
    31    16    18   ar
    32    17    19   ar
    33    18    21   ar
    34    19    20   ar
    35    19    33    1
    36    20    21   ar
    37    21    34    1
    38    22    36    1
    39    22    37    1
    40    22    38    1
