@<TRIPOS>MOLECULE
IMPHY009609
 36 37 0 0 0
SMALL
GASTEIGER

@<TRIPOS>ATOM
      1 O           9.4931   -1.3797    0.0000 O.2     1  UNL1       -0.4595
      2 O           7.7331    1.6550    0.0000 O.3     1  UNL1       -0.5055
      3 O           6.0010   -1.3450    0.0000 O.3     1  UNL1       -0.5062
      4 O           9.4815    1.6896    0.0000 O.2     1  UNL1       -0.2869
      5 O           2.5369    0.6550    0.0000 O.3     1  UNL1       -0.3907
      6 C           6.8671    0.1550    0.0000 C.ar    1  UNL1        0.0400
      7 C           8.5991    0.1550    0.0000 C.ar    1  UNL1        0.1057
      8 C           6.0010    0.6550    0.0000 C.3     1  UNL1       -0.0022
      9 C           7.7331    0.6550    0.0000 C.ar    1  UNL1        0.1381
     10 C           8.5991   -0.8450    0.0000 C.ar    1  UNL1        0.1457
     11 C           6.8671   -0.8450    0.0000 C.ar    1  UNL1        0.1273
     12 C           7.7331   -1.3450    0.0000 C.ar    1  UNL1        0.0234
     13 C           5.1350    0.1550    0.0000 C.2     1  UNL1       -0.0783
     14 C           9.4931    0.6897    0.0000 C.ar    1  UNL1        0.1963
     15 C           4.2690    0.6550    0.0000 C.2     1  UNL1       -0.0512
     16 C          10.3991   -0.8658    0.0000 C.ar    1  UNL1        0.1062
     17 C          10.3991    0.1758    0.0000 C.ar    1  UNL1        0.0237
     18 C           3.4030    0.1550    0.0000 C.3     1  UNL1        0.0651
     19 C           4.2690    1.6550    0.0000 C.3     1  UNL1       -0.0416
     20 C          11.2632   -1.3692    0.0000 C.3     1  UNL1       -0.0062
     21 H           6.3996    1.1300    0.0000 H       1  UNL1        0.0358
     22 H           5.6025    1.1300    0.0000 H       1  UNL1        0.0358
     23 H           7.7331   -1.9650    0.0000 H       1  UNL1        0.0691
     24 H           5.1350   -0.4650    0.0000 H       1  UNL1        0.0576
     25 H          10.9349    0.4879    0.0000 H       1  UNL1        0.0689
     26 H           3.0044   -0.3199    0.0000 H       1  UNL1        0.0604
     27 H           3.8015   -0.3199    0.0000 H       1  UNL1        0.0604
     28 H           4.8890    1.6550    0.0000 H       1  UNL1        0.0275
     29 H           4.2690    2.2750    0.0000 H       1  UNL1        0.0275
     30 H           3.6490    1.6550    0.0000 H       1  UNL1        0.0275
     31 H           7.1962    1.9650    0.0000 H       1  UNL1        0.2922
     32 H          10.9511   -1.9049    0.0000 H       1  UNL1        0.0308
     33 H          11.7990   -1.6812    0.0000 H       1  UNL1        0.0308
     34 H          11.5753   -0.8334    0.0000 H       1  UNL1        0.0308
     35 H           6.0010   -1.9650    0.0000 H       1  UNL1        0.2921
     36 H           2.0000    0.3450    0.0000 H       1  UNL1        0.2098
@<TRIPOS>BOND
     1     1    10   ar
     2     1    16   ar
     3     2     9    1
     4     2    31    1
     5     3    11    1
     6     3    35    1
     7     4    14    2
     8     5    18    1
     9     5    36    1
    10     6     8    1
    11     6     9   ar
    12     6    11   ar
    13     7     9   ar
    14     7    10   ar
    15     7    14   ar
    16     8    13    1
    17     8    21    1
    18     8    22    1
    19    10    12   ar
    20    11    12   ar
    21    12    23    1
    22    13    15    2
    23    13    24    1
    24    14    17   ar
    25    15    18    1
    26    15    19    1
    27    16    17   ar
    28    16    20    1
    29    17    25    1
    30    18    26    1
    31    18    27    1
    32    19    28    1
    33    19    29    1
    34    19    30    1
    35    20    32    1
    36    20    33    1
    37    20    34    1
