@<TRIPOS>MOLECULE
IMPHY010243
 40 42 0 0 0
SMALL
GASTEIGER

@<TRIPOS>ATOM
      1 O           6.2204    1.7921    0.0000 O.3     1  UNL1       -0.3612
      2 O           6.7113   -0.5713    0.0000 O.3     1  UNL1       -0.4581
      3 O           7.0534   -2.1518    0.0000 O.2     1  UNL1       -0.2505
      4 C           6.0121    0.8135    0.0000 C.3     1  UNL1        0.1251
      5 C           5.2690    1.4827    0.0000 C.3     1  UNL1        0.0971
      6 C           5.8042   -0.1646    0.0000 C.3     1  UNL1        0.1353
      7 C           4.8532   -0.4736    0.0000 C.3     1  UNL1        0.0116
      8 C           4.3179    1.1736    0.0000 C.3     1  UNL1       -0.0180
      9 C           5.3524   -1.3332    0.0000 C.3     1  UNL1        0.0599
     10 C           4.5258    2.1518    0.0000 C.3     1  UNL1       -0.0332
     11 C           4.6453   -1.4518    0.0000 C.3     1  UNL1       -0.0423
     12 C           6.4656   -1.3428    0.0000 C.2     1  UNL1        0.3107
     13 C           4.1100    0.1955    0.0000 C.3     1  UNL1       -0.0318
     14 C           3.6942   -1.7608    0.0000 C.3     1  UNL1       -0.0316
     15 C           4.7661   -2.1433    0.0000 C.3     1  UNL1       -0.0519
     16 C           2.9511   -1.0917    0.0000 C.2     1  UNL1       -0.0765
     17 C           3.1590   -0.1135    0.0000 C.2     1  UNL1       -0.0849
     18 C           2.0000   -1.4007    0.0000 C.3     1  UNL1       -0.0438
     19 H           6.8435    0.6367    0.0000 H       1  UNL1        0.0662
     20 H           6.5621    0.2203    0.0000 H       1  UNL1        0.0764
     21 H           4.2215    0.0951    0.0000 H       1  UNL1        0.0345
     22 H           4.2316    1.7876    0.0000 H       1  UNL1        0.0297
     23 H           3.6983    1.1953    0.0000 H       1  UNL1        0.0297
     24 H           5.6320   -1.8866    0.0000 H       1  UNL1        0.0415
     25 H           4.9407    2.6125    0.0000 H       1  UNL1        0.0258
     26 H           4.0651    2.5667    0.0000 H       1  UNL1        0.0258
     27 H           4.1110    1.6910    0.0000 H       1  UNL1        0.0258
     28 H           4.7316   -2.0657    0.0000 H       1  UNL1        0.0272
     29 H           5.2649   -1.4734    0.0000 H       1  UNL1        0.0272
     30 H           4.1963   -0.4185    0.0000 H       1  UNL1        0.0308
     31 H           4.7296    0.1739    0.0000 H       1  UNL1        0.0308
     32 H           3.2056   -2.1425    0.0000 H       1  UNL1        0.0310
     33 H           3.9853   -2.3082    0.0000 H       1  UNL1        0.0310
     34 H           4.2638   -1.7797    0.0000 H       1  UNL1        0.0238
     35 H           4.4025   -2.6455    0.0000 H       1  UNL1        0.0238
     36 H           5.2683   -2.5068    0.0000 H       1  UNL1        0.0238
     37 H           2.6982    0.3013    0.0000 H       1  UNL1        0.0572
     38 H           1.8084   -0.8110    0.0000 H       1  UNL1        0.0274
     39 H           1.4103   -1.5923    0.0000 H       1  UNL1        0.0274
     40 H           2.1916   -1.9903    0.0000 H       1  UNL1        0.0274
@<TRIPOS>BOND
     1     1     4    1
     2     1     5    1
     3     2     6    1
     4     2    12    1
     5     3    12    2
     6     4     5    1
     7     4     6    1
     8     4    19    1
     9     5     8    1
    10     5    10    1
    11     6     7    1
    12     6    20    1
    13     7     9    1
    14     7    11    1
    15     7    21    1
    16     8    13    1
    17     8    22    1
    18     8    23    1
    19     9    12    1
    20     9    15    1
    21     9    24    1
    22    10    25    1
    23    10    26    1
    24    10    27    1
    25    11    14    1
    26    11    28    1
    27    11    29    1
    28    13    17    1
    29    13    30    1
    30    13    31    1
    31    14    16    1
    32    14    32    1
    33    14    33    1
    34    15    34    1
    35    15    35    1
    36    15    36    1
    37    16    17    2
    38    16    18    1
    39    17    37    1
    40    18    38    1
    41    18    39    1
    42    18    40    1
