@<TRIPOS>MOLECULE
IMPHY016880
 29 29 0 0 0
SMALL
GASTEIGER

@<TRIPOS>ATOM
      1 O           2.5369    0.0670    0.0000 O.3     1  UNL1       -0.3944
      2 C           5.1350    0.5670    0.0000 C.3     1  UNL1       -0.0260
      3 C           4.2690    0.0670    0.0000 C.3     1  UNL1        0.0082
      4 C           6.0010    0.0670    0.0000 C.3     1  UNL1       -0.0438
      5 C           4.2690   -0.9330    0.0000 C.2     1  UNL1       -0.0708
      6 C           6.0010   -0.9330    0.0000 C.3     1  UNL1       -0.0340
      7 C           5.6350    1.4330    0.0000 C.3     1  UNL1       -0.0592
      8 C           4.6350    1.4330    0.0000 C.3     1  UNL1       -0.0592
      9 C           3.4030    0.5670    0.0000 C.3     1  UNL1        0.0512
     10 C           5.1350   -1.4330    0.0000 C.2     1  UNL1       -0.0847
     11 C           3.4030   -1.4330    0.0000 C.3     1  UNL1       -0.0434
     12 H           4.2690    0.6870    0.0000 H       1  UNL1        0.0373
     13 H           6.6116   -0.0407    0.0000 H       1  UNL1        0.0274
     14 H           6.2131    0.6496    0.0000 H       1  UNL1        0.0274
     15 H           6.2131   -1.5156    0.0000 H       1  UNL1        0.0308
     16 H           6.6116   -0.8254    0.0000 H       1  UNL1        0.0308
     17 H           6.1720    1.1230    0.0000 H       1  UNL1        0.0235
     18 H           5.9450    1.9700    0.0000 H       1  UNL1        0.0235
     19 H           5.0981    1.7430    0.0000 H       1  UNL1        0.0235
     20 H           5.1720    1.7430    0.0000 H       1  UNL1        0.0235
     21 H           4.3250    1.9700    0.0000 H       1  UNL1        0.0235
     22 H           4.0981    1.1230    0.0000 H       1  UNL1        0.0235
     23 H           3.8015    1.0419    0.0000 H       1  UNL1        0.0563
     24 H           3.0044    1.0419    0.0000 H       1  UNL1        0.0563
     25 H           5.1350   -2.0530    0.0000 H       1  UNL1        0.0572
     26 H           3.0930   -0.8961    0.0000 H       1  UNL1        0.0274
     27 H           2.8660   -1.7430    0.0000 H       1  UNL1        0.0274
     28 H           3.7130   -1.9700    0.0000 H       1  UNL1        0.0274
     29 H           2.0000    0.3770    0.0000 H       1  UNL1        0.2094
@<TRIPOS>BOND
     1     1     9    1
     2     1    29    1
     3     2     3    1
     4     2     4    1
     5     2     7    1
     6     2     8    1
     7     3     5    1
     8     3     9    1
     9     3    12    1
    10     4     6    1
    11     4    13    1
    12     4    14    1
    13     5    10    2
    14     5    11    1
    15     6    10    1
    16     6    15    1
    17     6    16    1
    18     7    17    1
    19     7    18    1
    20     7    19    1
    21     8    20    1
    22     8    21    1
    23     8    22    1
    24     9    23    1
    25     9    24    1
    26    10    25    1
    27    11    26    1
    28    11    27    1
    29    11    28    1
