@<TRIPOS>MOLECULE
IMPHY000897
 83 86 0 0 0
SMALL
GASTEIGER

@<TRIPOS>ATOM
      1 O           2.0000   -3.3928    0.0000 O.2     1  UNL1       -0.2968
      2 O          11.5855    1.5334    0.0000 O.3     1  UNL1       -0.3890
      3 O          11.5390    4.1788    0.0000 O.3     1  UNL1       -0.3866
      4 C           6.5271   -1.8405    0.0000 C.3     1  UNL1       -0.0231
      5 C           7.3931   -1.3405    0.0000 C.3     1  UNL1       -0.0230
      6 C           5.6610   -1.3405    0.0000 C.3     1  UNL1       -0.0294
      7 C           4.7510   -1.8473    0.0000 C.3     1  UNL1       -0.0246
      8 C           7.3931   -0.3405    0.0000 C.3     1  UNL1       -0.0286
      9 C           4.7430   -2.8889    0.0000 C.3     1  UNL1       -0.0235
     10 C           6.5431   -2.8820    0.0000 C.3     1  UNL1       -0.0466
     11 C           5.6610   -0.3405    0.0000 C.3     1  UNL1       -0.0489
     12 C           8.3393   -1.6452    0.0000 C.3     1  UNL1       -0.0463
     13 C           6.5271    0.1595    0.0000 C.3     1  UNL1       -0.0489
     14 C           8.3393   -0.0358    0.0000 C.3     1  UNL1       -0.0168
     15 C           5.6451   -3.4098    0.0000 C.3     1  UNL1       -0.0483
     16 C           8.9229   -0.8405    0.0000 C.3     1  UNL1       -0.0457
     17 C           3.8076   -3.4387    0.0000 C.3     1  UNL1        0.0267
     18 C           3.8242   -1.2833    0.0000 C.3     1  UNL1       -0.0404
     19 C           7.1698   -2.6065    0.0000 C.3     1  UNL1       -0.0588
     20 C           7.7352   -2.2802    0.0000 C.3     1  UNL1       -0.0588
     21 C           4.7587   -0.8474    0.0000 C.3     1  UNL1       -0.0590
     22 C           2.8763   -1.8112    0.0000 C.3     1  UNL1        0.0069
     23 C           2.8680   -2.8962    0.0000 C.2     1  UNL1        0.1392
     24 C           8.6500    0.9148    0.0000 C.2     1  UNL1       -0.0732
     25 C           3.3109   -4.3066    0.0000 C.3     1  UNL1       -0.0528
     26 C           4.3109   -4.3028    0.0000 C.3     1  UNL1       -0.0528
     27 C           9.6285    1.1210    0.0000 C.3     1  UNL1       -0.0293
     28 C           7.9821    1.6591    0.0000 C.2     1  UNL1       -0.0992
     29 C           9.9391    2.0715    0.0000 C.3     1  UNL1       -0.0205
     30 C          10.9176    2.2777    0.0000 C.3     1  UNL1        0.0836
     31 C          11.2283    3.2282    0.0000 C.3     1  UNL1        0.0862
     32 C          12.1788    2.9176    0.0000 C.3     1  UNL1       -0.0339
     33 C          10.2778    3.5389    0.0000 C.3     1  UNL1       -0.0339
     34 H           6.1980   -1.0305    0.0000 H       1  UNL1        0.0312
     35 H           7.4830    0.5047    0.0000 H       1  UNL1        0.0312
     36 H           4.7454   -3.5089    0.0000 H       1  UNL1        0.0315
     37 H           6.7612   -3.4624    0.0000 H       1  UNL1        0.0271
     38 H           7.1523   -2.7665    0.0000 H       1  UNL1        0.0271
     39 H           5.4490    0.2421    0.0000 H       1  UNL1        0.0268
     40 H           5.0504   -0.4482    0.0000 H       1  UNL1        0.0268
     41 H           8.0883   -2.2121    0.0000 H       1  UNL1        0.0271
     42 H           8.8767   -1.9544    0.0000 H       1  UNL1        0.0271
     43 H           6.9256    0.6345    0.0000 H       1  UNL1        0.0268
     44 H           6.1285    0.6345    0.0000 H       1  UNL1        0.0268
     45 H           7.9018    0.4036    0.0000 H       1  UNL1        0.0348
     46 H           5.2478   -3.8857    0.0000 H       1  UNL1        0.0269
     47 H           6.0460   -3.8826    0.0000 H       1  UNL1        0.0269
     48 H           9.3838   -1.2552    0.0000 H       1  UNL1        0.0271
     49 H           9.3838   -0.4258    0.0000 H       1  UNL1        0.0271
     50 H           4.2324   -0.8166    0.0000 H       1  UNL1        0.0275
     51 H           3.4343   -0.8012    0.0000 H       1  UNL1        0.0275
     52 H           6.6949   -3.0051    0.0000 H       1  UNL1        0.0235
     53 H           7.5684   -3.0815    0.0000 H       1  UNL1        0.0235
     54 H           7.6448   -2.2080    0.0000 H       1  UNL1        0.0235
     55 H           7.1526   -2.4923    0.0000 H       1  UNL1        0.0235
     56 H           7.9473   -2.8627    0.0000 H       1  UNL1        0.0235
     57 H           8.3178   -2.0680    0.0000 H       1  UNL1        0.0235
     58 H           5.3787   -0.8522    0.0000 H       1  UNL1        0.0235
     59 H           4.7635   -0.2274    0.0000 H       1  UNL1        0.0235
     60 H           4.1388   -0.8426    0.0000 H       1  UNL1        0.0235
     61 H           2.6718   -1.2259    0.0000 H       1  UNL1        0.0342
     62 H           2.2647   -1.9126    0.0000 H       1  UNL1        0.0342
     63 H           2.7728   -3.9987    0.0000 H       1  UNL1        0.0239
     64 H           3.0030   -4.8447    0.0000 H       1  UNL1        0.0239
     65 H           3.8490   -4.6145    0.0000 H       1  UNL1        0.0239
     66 H           3.7752   -4.6148    0.0000 H       1  UNL1        0.0239
     67 H           4.6230   -4.8385    0.0000 H       1  UNL1        0.0239
     68 H           4.8466   -3.9907    0.0000 H       1  UNL1        0.0239
     69 H           9.6490    0.5013    0.0000 H       1  UNL1        0.0311
     70 H          10.2423    1.0336    0.0000 H       1  UNL1        0.0311
     71 H           8.1747    2.2484    0.0000 H       1  UNL1        0.0534
     72 H           7.3754    1.5312    0.0000 H       1  UNL1        0.0534
     73 H           9.9186    2.6912    0.0000 H       1  UNL1        0.0294
     74 H           9.3253    2.1588    0.0000 H       1  UNL1        0.0294
     75 H          10.7250    1.6884    0.0000 H       1  UNL1        0.0622
     76 H          12.1922    1.6613    0.0000 H       1  UNL1        0.2099
     77 H          10.4704    4.1282    0.0000 H       1  UNL1        0.0258
     78 H           9.6885    3.7315    0.0000 H       1  UNL1        0.0258
     79 H          10.0852    2.9496    0.0000 H       1  UNL1        0.0258
     80 H          11.9862    2.3282    0.0000 H       1  UNL1        0.0258
     81 H          12.7681    2.7250    0.0000 H       1  UNL1        0.0258
     82 H          12.3714    3.5069    0.0000 H       1  UNL1        0.0258
     83 H          12.1456    4.3066    0.0000 H       1  UNL1        0.2102
@<TRIPOS>BOND
     1     1    23    2
     2    30     2    1
     3     2    76    1
     4     3    31    1
     5     3    83    1
     6     4     5    1
     7     4     6    1
     8     4    10    1
     9     4    19    1
    10     5     8    1
    11     5    12    1
    12     5    20    1
    13     6     7    1
    14     6    11    1
    15     6    34    1
    16     7     9    1
    17     7    18    1
    18     7    21    1
    19     8    13    1
    20     8    14    1
    21     8    35    1
    22     9    15    1
    23     9    17    1
    24     9    36    1
    25    10    15    1
    26    10    37    1
    27    10    38    1
    28    11    13    1
    29    11    39    1
    30    11    40    1
    31    12    16    1
    32    12    41    1
    33    12    42    1
    34    13    43    1
    35    13    44    1
    36    14    16    1
    37    14    24    1
    38    14    45    1
    39    15    46    1
    40    15    47    1
    41    16    48    1
    42    16    49    1
    43    17    23    1
    44    17    25    1
    45    17    26    1
    46    18    22    1
    47    18    50    1
    48    18    51    1
    49    19    52    1
    50    19    53    1
    51    19    54    1
    52    20    55    1
    53    20    56    1
    54    20    57    1
    55    21    58    1
    56    21    59    1
    57    21    60    1
    58    22    23    1
    59    22    61    1
    60    22    62    1
    61    24    27    1
    62    24    28    2
    63    25    63    1
    64    25    64    1
    65    25    65    1
    66    26    66    1
    67    26    67    1
    68    26    68    1
    69    27    29    1
    70    27    69    1
    71    27    70    1
    72    28    71    1
    73    28    72    1
    74    29    30    1
    75    29    73    1
    76    29    74    1
    77    30    31    1
    78    30    75    1
    79    31    32    1
    80    31    33    1
    81    32    80    1
    82    32    81    1
    83    32    82    1
    84    33    77    1
    85    33    78    1
    86    33    79    1
