@<TRIPOS>MOLECULE
IMPHY016125
 19 18 0 0 0
SMALL
GASTEIGER

@<TRIPOS>ATOM
      1 O           5.4641   -0.2500    0.0000 O.3     1  UNL1       -0.4571
      2 O           3.7320   -1.2500    0.0000 O.2     1  UNL1       -0.2938
      3 O           6.3301    1.2500    0.0000 O.2     1  UNL1       -0.2512
      4 C           2.8660    0.2500    0.0000 C.3     1  UNL1        0.0064
      5 C           3.7320   -0.2500    0.0000 C.2     1  UNL1        0.1702
      6 C           4.5981    0.2500    0.0000 C.3     1  UNL1        0.1501
      7 C           2.0000   -0.2500    0.0000 C.3     1  UNL1       -0.0585
      8 C           6.3301    0.2500    0.0000 C.2     1  UNL1        0.3043
      9 C           7.1962   -0.2500    0.0000 C.3     1  UNL1        0.0332
     10 H           3.2646    0.7249    0.0000 H       1  UNL1        0.0340
     11 H           2.4675    0.7249    0.0000 H       1  UNL1        0.0340
     12 H           4.9966    0.7249    0.0000 H       1  UNL1        0.0778
     13 H           4.1996    0.7249    0.0000 H       1  UNL1        0.0778
     14 H           1.6900    0.2869    0.0000 H       1  UNL1        0.0234
     15 H           1.4631   -0.5600    0.0000 H       1  UNL1        0.0234
     16 H           2.3100   -0.7869    0.0000 H       1  UNL1        0.0234
     17 H           6.8862   -0.7869    0.0000 H       1  UNL1        0.0342
     18 H           7.7331   -0.5600    0.0000 H       1  UNL1        0.0342
     19 H           7.5062    0.2869    0.0000 H       1  UNL1        0.0342
@<TRIPOS>BOND
     1     1     6    1
     2     1     8    1
     3     2     5    2
     4     3     8    2
     5     4     5    1
     6     4     7    1
     7     4    10    1
     8     4    11    1
     9     5     6    1
    10     6    12    1
    11     6    13    1
    12     7    14    1
    13     7    15    1
    14     7    16    1
    15     8     9    1
    16     9    17    1
    17     9    18    1
    18     9    19    1
