@<TRIPOS>MOLECULE
IMPHY003368
 101 100 0 0 0
SMALL
GASTEIGER

@<TRIPOS>ATOM
      1 O           2.5369    0.7500    0.0000 O.3     1  UNL1       -0.4806
      2 O           3.4030   -0.7500    0.0000 O.2     1  UNL1       -0.2510
      3 C          17.2594    0.2500    0.0000 C.3     1  UNL1       -0.0531
      4 C          18.1254    0.7500    0.0000 C.3     1  UNL1       -0.0531
      5 C          16.3933    0.7500    0.0000 C.3     1  UNL1       -0.0531
      6 C          18.9914    0.2500    0.0000 C.3     1  UNL1       -0.0531
      7 C          15.5273    0.2500    0.0000 C.3     1  UNL1       -0.0531
      8 C          19.8574    0.7500    0.0000 C.3     1  UNL1       -0.0531
      9 C          14.6613    0.7500    0.0000 C.3     1  UNL1       -0.0531
     10 C          20.7235    0.2500    0.0000 C.3     1  UNL1       -0.0531
     11 C          13.7953    0.2500    0.0000 C.3     1  UNL1       -0.0531
     12 C          21.5895    0.7500    0.0000 C.3     1  UNL1       -0.0531
     13 C          12.9292    0.7500    0.0000 C.3     1  UNL1       -0.0531
     14 C          22.4555    0.2500    0.0000 C.3     1  UNL1       -0.0531
     15 C          12.0632    0.2500    0.0000 C.3     1  UNL1       -0.0531
     16 C          23.3215    0.7500    0.0000 C.3     1  UNL1       -0.0531
     17 C          11.1972    0.7500    0.0000 C.3     1  UNL1       -0.0531
     18 C          24.1876    0.2500    0.0000 C.3     1  UNL1       -0.0531
     19 C          10.3312    0.2500    0.0000 C.3     1  UNL1       -0.0531
     20 C          25.0536    0.7500    0.0000 C.3     1  UNL1       -0.0531
     21 C           9.4651    0.7500    0.0000 C.3     1  UNL1       -0.0531
     22 C          25.9196    0.2500    0.0000 C.3     1  UNL1       -0.0531
     23 C           8.5991    0.2500    0.0000 C.3     1  UNL1       -0.0531
     24 C          26.7856    0.7500    0.0000 C.3     1  UNL1       -0.0531
     25 C           7.7331    0.7500    0.0000 C.3     1  UNL1       -0.0531
     26 C          27.6517    0.2500    0.0000 C.3     1  UNL1       -0.0531
     27 C           6.8671    0.2500    0.0000 C.3     1  UNL1       -0.0530
     28 C          28.5177    0.7500    0.0000 C.3     1  UNL1       -0.0531
     29 C           6.0010    0.7500    0.0000 C.3     1  UNL1       -0.0526
     30 C          29.3837    0.2500    0.0000 C.3     1  UNL1       -0.0533
     31 C           5.1350    0.2500    0.0000 C.3     1  UNL1       -0.0430
     32 C          30.2497    0.7500    0.0000 C.3     1  UNL1       -0.0559
     33 C           4.2690    0.7500    0.0000 C.3     1  UNL1        0.0448
     34 C          31.1158    0.2500    0.0000 C.3     1  UNL1       -0.0653
     35 C           3.4030    0.2500    0.0000 C.2     1  UNL1        0.3047
     36 H          16.8608   -0.2249    0.0000 H       1  UNL1        0.0265
     37 H          17.6579   -0.2249    0.0000 H       1  UNL1        0.0265
     38 H          18.5239    1.2250    0.0000 H       1  UNL1        0.0265
     39 H          17.7269    1.2250    0.0000 H       1  UNL1        0.0265
     40 H          16.7919    1.2250    0.0000 H       1  UNL1        0.0265
     41 H          15.9948    1.2250    0.0000 H       1  UNL1        0.0265
     42 H          18.5929   -0.2249    0.0000 H       1  UNL1        0.0265
     43 H          19.3899   -0.2249    0.0000 H       1  UNL1        0.0265
     44 H          15.1288   -0.2249    0.0000 H       1  UNL1        0.0265
     45 H          15.9258   -0.2249    0.0000 H       1  UNL1        0.0265
     46 H          20.2560    1.2250    0.0000 H       1  UNL1        0.0265
     47 H          19.4589    1.2250    0.0000 H       1  UNL1        0.0265
     48 H          15.0598    1.2250    0.0000 H       1  UNL1        0.0265
     49 H          14.2628    1.2250    0.0000 H       1  UNL1        0.0265
     50 H          20.3249   -0.2249    0.0000 H       1  UNL1        0.0265
     51 H          21.1220   -0.2249    0.0000 H       1  UNL1        0.0265
     52 H          13.3967   -0.2249    0.0000 H       1  UNL1        0.0265
     53 H          14.1938   -0.2249    0.0000 H       1  UNL1        0.0265
     54 H          21.9880    1.2250    0.0000 H       1  UNL1        0.0265
     55 H          21.1910    1.2250    0.0000 H       1  UNL1        0.0265
     56 H          13.3278    1.2250    0.0000 H       1  UNL1        0.0265
     57 H          12.5307    1.2250    0.0000 H       1  UNL1        0.0265
     58 H          22.0570   -0.2249    0.0000 H       1  UNL1        0.0265
     59 H          22.8540   -0.2249    0.0000 H       1  UNL1        0.0265
     60 H          11.6647   -0.2249    0.0000 H       1  UNL1        0.0265
     61 H          12.4617   -0.2249    0.0000 H       1  UNL1        0.0265
     62 H          23.7201    1.2250    0.0000 H       1  UNL1        0.0265
     63 H          22.9230    1.2250    0.0000 H       1  UNL1        0.0265
     64 H          11.5957    1.2250    0.0000 H       1  UNL1        0.0265
     65 H          10.7987    1.2250    0.0000 H       1  UNL1        0.0265
     66 H          23.7890   -0.2249    0.0000 H       1  UNL1        0.0265
     67 H          24.5861   -0.2249    0.0000 H       1  UNL1        0.0265
     68 H           9.9326   -0.2249    0.0000 H       1  UNL1        0.0265
     69 H          10.7297   -0.2249    0.0000 H       1  UNL1        0.0265
     70 H          25.4521    1.2250    0.0000 H       1  UNL1        0.0265
     71 H          24.6551    1.2250    0.0000 H       1  UNL1        0.0265
     72 H           9.8637    1.2250    0.0000 H       1  UNL1        0.0265
     73 H           9.0666    1.2250    0.0000 H       1  UNL1        0.0265
     74 H          25.5211   -0.2249    0.0000 H       1  UNL1        0.0265
     75 H          26.3182   -0.2249    0.0000 H       1  UNL1        0.0265
     76 H           8.2006   -0.2249    0.0000 H       1  UNL1        0.0265
     77 H           8.9976   -0.2249    0.0000 H       1  UNL1        0.0265
     78 H          27.1842    1.2250    0.0000 H       1  UNL1        0.0265
     79 H          26.3871    1.2250    0.0000 H       1  UNL1        0.0265
     80 H           8.1316    1.2250    0.0000 H       1  UNL1        0.0265
     81 H           7.3346    1.2250    0.0000 H       1  UNL1        0.0265
     82 H          27.2531   -0.2249    0.0000 H       1  UNL1        0.0265
     83 H          28.0502   -0.2249    0.0000 H       1  UNL1        0.0265
     84 H           6.4685   -0.2249    0.0000 H       1  UNL1        0.0265
     85 H           7.2656   -0.2249    0.0000 H       1  UNL1        0.0265
     86 H          28.9162    1.2250    0.0000 H       1  UNL1        0.0265
     87 H          28.1192    1.2250    0.0000 H       1  UNL1        0.0265
     88 H           6.3996    1.2250    0.0000 H       1  UNL1        0.0265
     89 H           5.6025    1.2250    0.0000 H       1  UNL1        0.0265
     90 H          28.9852   -0.2249    0.0000 H       1  UNL1        0.0265
     91 H          29.7823   -0.2249    0.0000 H       1  UNL1        0.0265
     92 H           4.7365   -0.2249    0.0000 H       1  UNL1        0.0270
     93 H           5.5335   -0.2249    0.0000 H       1  UNL1        0.0270
     94 H          30.6483    1.2250    0.0000 H       1  UNL1        0.0263
     95 H          29.8512    1.2250    0.0000 H       1  UNL1        0.0263
     96 H           4.6675    1.2250    0.0000 H       1  UNL1        0.0377
     97 H           3.8705    1.2250    0.0000 H       1  UNL1        0.0377
     98 H          30.8058   -0.2869    0.0000 H       1  UNL1        0.0230
     99 H          31.6527   -0.0600    0.0000 H       1  UNL1        0.0230
    100 H          31.4258    0.7869    0.0000 H       1  UNL1        0.0230
    101 H           2.0000    0.4400    0.0000 H       1  UNL1        0.2951
@<TRIPOS>BOND
     1     1    35    1
     2     1   101    1
     3     2    35    2
     4     3     4    1
     5     3     5    1
     6     3    36    1
     7     3    37    1
     8     4     6    1
     9     4    38    1
    10     4    39    1
    11     5     7    1
    12     5    40    1
    13     5    41    1
    14     6     8    1
    15     6    42    1
    16     6    43    1
    17     7     9    1
    18     7    44    1
    19     7    45    1
    20     8    10    1
    21     8    46    1
    22     8    47    1
    23     9    11    1
    24     9    48    1
    25     9    49    1
    26    10    12    1
    27    10    50    1
    28    10    51    1
    29    11    13    1
    30    11    52    1
    31    11    53    1
    32    12    14    1
    33    12    54    1
    34    12    55    1
    35    13    15    1
    36    13    56    1
    37    13    57    1
    38    14    16    1
    39    14    58    1
    40    14    59    1
    41    15    17    1
    42    15    60    1
    43    15    61    1
    44    16    18    1
    45    16    62    1
    46    16    63    1
    47    17    19    1
    48    17    64    1
    49    17    65    1
    50    18    20    1
    51    18    66    1
    52    18    67    1
    53    19    21    1
    54    19    68    1
    55    19    69    1
    56    20    22    1
    57    20    70    1
    58    20    71    1
    59    21    23    1
    60    21    72    1
    61    21    73    1
    62    22    24    1
    63    22    74    1
    64    22    75    1
    65    23    25    1
    66    23    76    1
    67    23    77    1
    68    24    26    1
    69    24    78    1
    70    24    79    1
    71    25    27    1
    72    25    80    1
    73    25    81    1
    74    26    28    1
    75    26    82    1
    76    26    83    1
    77    27    29    1
    78    27    84    1
    79    27    85    1
    80    28    30    1
    81    28    86    1
    82    28    87    1
    83    29    31    1
    84    29    88    1
    85    29    89    1
    86    30    32    1
    87    30    90    1
    88    30    91    1
    89    31    33    1
    90    31    92    1
    91    31    93    1
    92    32    34    1
    93    32    94    1
    94    32    95    1
    95    33    35    1
    96    33    96    1
    97    33    97    1
    98    34    98    1
    99    34    99    1
   100    34   100    1
