@<TRIPOS>MOLECULE
IMPHY000831
 97 100 0 0 0
SMALL
GASTEIGER

@<TRIPOS>ATOM
      1 O          11.5835   -1.5118    0.0000 O.3     1  UNL1       -0.4532
      2 O          10.6385   -1.0503    0.0000 O.3     1  UNL1       -0.4569
      3 O          11.3657    1.5564    0.0000 O.3     1  UNL1       -0.3869
      4 O          13.2911    3.6611    0.0000 O.3     1  UNL1       -0.3797
      5 O          12.5702   -2.9353    0.0000 O.2     1  UNL1       -0.2505
      6 O          12.4676    4.6444    0.0000 O.2     1  UNL1       -0.2893
      7 O          15.9462    1.5869    0.0000 O.3     1  UNL1       -0.3907
      8 O           9.6683    0.3845    0.0000 O.2     1  UNL1       -0.2508
      9 C          12.4053   -0.9421    0.0000 C.3     1  UNL1        0.1598
     10 C          13.2614   -0.3487    0.0000 C.3     1  UNL1        0.0209
     11 C          13.3476   -1.3873    0.0000 C.3     1  UNL1        0.0161
     12 C          13.1676    0.6887    0.0000 C.3     1  UNL1        0.0145
     13 C          11.4669   -0.4902    0.0000 C.3     1  UNL1        0.1485
     14 C          12.2666    1.1225    0.0000 C.3     1  UNL1        0.0880
     15 C          11.3970    0.5491    0.0000 C.3     1  UNL1        0.0272
     16 C          14.3442   -1.3048    0.0000 C.3     1  UNL1       -0.0556
     17 C          12.9207   -2.2916    0.0000 C.3     1  UNL1       -0.0556
     18 C          12.0441    2.0975    0.0000 C.3     1  UNL1        0.0439
     19 C          14.0686    1.1225    0.0000 C.2     1  UNL1       -0.0763
     20 C          12.6676    2.8793    0.0000 C.3     1  UNL1        0.1403
     21 C          10.3990    0.4859    0.0000 C.3     1  UNL1       -0.0562
     22 C          14.2911    2.0975    0.0000 C.2     1  UNL1       -0.0449
     23 C          13.6676    2.8793    0.0000 C.3     1  UNL1        0.0073
     24 C          11.1143    2.4492    0.0000 C.2     1  UNL1       -0.0687
     25 C          11.6659   -2.5084    0.0000 C.2     1  UNL1        0.3106
     26 C          12.1178    3.7075    0.0000 C.2     1  UNL1        0.1909
     27 C          11.1598    3.4422    0.0000 C.2     1  UNL1       -0.0086
     28 C           9.7392   -0.6130    0.0000 C.2     1  UNL1        0.3075
     29 C          15.2660    2.3200    0.0000 C.3     1  UNL1        0.0654
     30 C          10.8440   -3.0781    0.0000 C.3     1  UNL1        0.0534
     31 C          10.3779    4.0657    0.0000 C.3     1  UNL1       -0.0366
     32 C           8.9108   -1.1731    0.0000 C.3     1  UNL1        0.0450
     33 C          10.9264   -4.0747    0.0000 C.3     1  UNL1       -0.0432
     34 C           9.9397   -2.6512    0.0000 C.3     1  UNL1       -0.0523
     35 C           8.0115   -0.7357    0.0000 C.3     1  UNL1       -0.0430
     36 C          10.1046   -4.6444    0.0000 C.3     1  UNL1       -0.0645
     37 C           7.1831   -1.2959    0.0000 C.3     1  UNL1       -0.0526
     38 C           6.2838   -0.8585    0.0000 C.3     1  UNL1       -0.0530
     39 C           5.4554   -1.4186    0.0000 C.3     1  UNL1       -0.0531
     40 C           4.5561   -0.9813    0.0000 C.3     1  UNL1       -0.0531
     41 C           3.7277   -1.5414    0.0000 C.3     1  UNL1       -0.0533
     42 C           2.8284   -1.1041    0.0000 C.3     1  UNL1       -0.0559
     43 C           2.0000   -1.6642    0.0000 C.3     1  UNL1       -0.0653
     44 H          13.8791   -0.2952    0.0000 H       1  UNL1        0.0354
     45 H          13.7069    0.3828    0.0000 H       1  UNL1        0.0375
     46 H          10.9098   -0.2180    0.0000 H       1  UNL1        0.0778
     47 H          11.2002    1.1370    0.0000 H       1  UNL1        0.0363
     48 H          14.3953   -1.9227    0.0000 H       1  UNL1        0.0236
     49 H          14.9621   -1.2538    0.0000 H       1  UNL1        0.0236
     50 H          14.2931   -0.6870    0.0000 H       1  UNL1        0.0236
     51 H          12.3600   -2.0269    0.0000 H       1  UNL1        0.0236
     52 H          12.6560   -2.8522    0.0000 H       1  UNL1        0.0236
     53 H          13.4813   -2.5562    0.0000 H       1  UNL1        0.0236
     54 H          12.6486    1.9595    0.0000 H       1  UNL1        0.0404
     55 H          14.5533    0.7360    0.0000 H       1  UNL1        0.0576
     56 H          10.3599    1.1047    0.0000 H       1  UNL1        0.0234
     57 H           9.7803    0.4467    0.0000 H       1  UNL1        0.0234
     58 H          10.4382   -0.1329    0.0000 H       1  UNL1        0.0234
     59 H          10.7474    1.5101    0.0000 H       1  UNL1        0.2102
     60 H          14.2262    3.1483    0.0000 H       1  UNL1        0.0343
     61 H          13.5296    3.4838    0.0000 H       1  UNL1        0.0343
     62 H          10.5963    2.1085    0.0000 H       1  UNL1        0.0580
     63 H          13.9042    3.5687    0.0000 H       1  UNL1        0.2108
     64 H          15.7868    2.6564    0.0000 H       1  UNL1        0.0604
     65 H          15.0252    2.8913    0.0000 H       1  UNL1        0.0604
     66 H          10.7929   -2.4602    0.0000 H       1  UNL1        0.0410
     67 H          10.7645    4.5504    0.0000 H       1  UNL1        0.0279
     68 H           9.8932    4.4523    0.0000 H       1  UNL1        0.0279
     69 H           9.9914    3.5810    0.0000 H       1  UNL1        0.0279
     70 H           8.5469   -1.6751    0.0000 H       1  UNL1        0.0377
     71 H           9.3420   -1.6186    0.0000 H       1  UNL1        0.0377
     72 H          11.1858   -4.6378    0.0000 H       1  UNL1        0.0270
     73 H          11.5261   -3.9171    0.0000 H       1  UNL1        0.0270
     74 H          10.2044   -2.0905    0.0000 H       1  UNL1        0.0238
     75 H           9.3791   -2.3865    0.0000 H       1  UNL1        0.0238
     76 H           9.6750   -3.2118    0.0000 H       1  UNL1        0.0238
     77 H          16.5506    1.7249    0.0000 H       1  UNL1        0.2098
     78 H           8.3753   -0.2337    0.0000 H       1  UNL1        0.0270
     79 H           7.5803   -0.2902    0.0000 H       1  UNL1        0.0270
     80 H           9.7514   -4.1348    0.0000 H       1  UNL1        0.0230
     81 H           9.5950   -4.9975    0.0000 H       1  UNL1        0.0230
     82 H          10.4578   -5.1539    0.0000 H       1  UNL1        0.0230
     83 H           6.8192   -1.7979    0.0000 H       1  UNL1        0.0265
     84 H           7.6143   -1.7414    0.0000 H       1  UNL1        0.0265
     85 H           6.6476   -0.3565    0.0000 H       1  UNL1        0.0265
     86 H           5.8526   -0.4130    0.0000 H       1  UNL1        0.0265
     87 H           5.0915   -1.9206    0.0000 H       1  UNL1        0.0265
     88 H           5.8866   -1.8642    0.0000 H       1  UNL1        0.0265
     89 H           4.9200   -0.4793    0.0000 H       1  UNL1        0.0265
     90 H           4.1249   -0.5358    0.0000 H       1  UNL1        0.0265
     91 H           3.3638   -2.0434    0.0000 H       1  UNL1        0.0265
     92 H           4.1589   -1.9869    0.0000 H       1  UNL1        0.0265
     93 H           3.1923   -0.6021    0.0000 H       1  UNL1        0.0263
     94 H           2.3972   -0.6586    0.0000 H       1  UNL1        0.0263
     95 H           1.6527   -1.1506    0.0000 H       1  UNL1        0.0230
     96 H           1.4864   -2.0115    0.0000 H       1  UNL1        0.0230
     97 H           2.3473   -2.1778    0.0000 H       1  UNL1        0.0230
@<TRIPOS>BOND
     1     9     1    1
     2     1    25    1
     3    13     2    1
     4     2    28    1
     5    14     3    1
     6     3    59    1
     7    20     4    1
     8     4    63    1
     9     5    25    2
    10     6    26    2
    11     7    29    1
    12     7    77    1
    13     8    28    2
    14     9    10    1
    15     9    11    1
    16     9    13    1
    17    10    11    1
    18    10    12    1
    19    10    44    1
    20    11    16    1
    21    11    17    1
    22    12    14    1
    23    12    19    1
    24    12    45    1
    25    13    15    1
    26    13    46    1
    27    14    15    1
    28    14    18    1
    29    15    21    1
    30    15    47    1
    31    16    48    1
    32    16    49    1
    33    16    50    1
    34    17    51    1
    35    17    52    1
    36    17    53    1
    37    18    20    1
    38    18    24    1
    39    18    54    1
    40    19    22    2
    41    19    55    1
    42    20    23    1
    43    20    26    1
    44    21    56    1
    45    21    57    1
    46    21    58    1
    47    22    23    1
    48    22    29    1
    49    23    60    1
    50    23    61    1
    51    24    27    2
    52    24    62    1
    53    25    30    1
    54    26    27    1
    55    27    31    1
    56    28    32    1
    57    29    64    1
    58    29    65    1
    59    30    33    1
    60    30    34    1
    61    30    66    1
    62    31    67    1
    63    31    68    1
    64    31    69    1
    65    32    35    1
    66    32    70    1
    67    32    71    1
    68    33    36    1
    69    33    72    1
    70    33    73    1
    71    34    74    1
    72    34    75    1
    73    34    76    1
    74    35    37    1
    75    35    78    1
    76    35    79    1
    77    36    80    1
    78    36    81    1
    79    36    82    1
    80    37    38    1
    81    37    83    1
    82    37    84    1
    83    38    39    1
    84    38    85    1
    85    38    86    1
    86    39    40    1
    87    39    87    1
    88    39    88    1
    89    40    41    1
    90    40    89    1
    91    40    90    1
    92    41    42    1
    93    41    91    1
    94    41    92    1
    95    42    43    1
    96    42    93    1
    97    42    94    1
    98    43    95    1
    99    43    96    1
   100    43    97    1
