@<TRIPOS>MOLECULE
IMPHY010819
 57 61 0 0 0
SMALL
GASTEIGER

@<TRIPOS>ATOM
      1 O           5.1515   -2.5451    0.0000 O.3     1  UNL1       -0.3675
      2 O           3.9031   -2.7137    0.0000 O.3     1  UNL1       -0.4608
      3 O           3.4094    1.9001    0.0000 O.3     1  UNL1       -0.4560
      4 O           5.6515   -2.6791    0.0000 O.3     1  UNL1       -0.3942
      5 O           2.1666    1.3380    0.0000 O.2     1  UNL1       -0.2502
      6 O           2.1712   -2.7337    0.0000 O.2     1  UNL1       -0.2512
      7 O           5.5242    4.2236    0.0000 O.2     1  UNL1       -0.4706
      8 C           4.7855   -1.1791    0.0000 C.3     1  UNL1        0.0656
      9 C           4.7855   -0.1791    0.0000 C.3     1  UNL1       -0.0110
     10 C           5.6515   -1.6791    0.0000 C.3     1  UNL1        0.1041
     11 C           3.8915    0.3555    0.0000 C.3     1  UNL1        0.0777
     12 C           3.8915   -1.7138    0.0000 C.3     1  UNL1        0.1140
     13 C           2.9855   -0.1583    0.0000 C.3     1  UNL1       -0.0243
     14 C           5.6515    0.3209    0.0000 C.3     1  UNL1       -0.0483
     15 C           6.5175   -1.1791    0.0000 C.3     1  UNL1       -0.0208
     16 C           6.1515   -2.5451    0.0000 C.3     1  UNL1        0.0782
     17 C           2.9855   -1.1999    0.0000 C.3     1  UNL1       -0.0113
     18 C           6.5175   -0.1791    0.0000 C.3     1  UNL1       -0.0501
     19 C           4.7855   -2.1791    0.0000 C.3     1  UNL1        0.0562
     20 C           4.7073    0.9339    0.0000 C.3     1  UNL1        0.0050
     21 C           3.0894    0.9526    0.0000 C.2     1  UNL1        0.3146
     22 C           4.4093    1.8885    0.0000 C.3     1  UNL1        0.1320
     23 C           2.0000   -0.3282    0.0000 C.3     1  UNL1       -0.0613
     24 C           5.0064    2.6907    0.0000 C.ar    1  UNL1        0.0304
     25 C           3.0429   -3.2237    0.0000 C.2     1  UNL1        0.3042
     26 C           6.0063    2.6791    0.0000 C.ar    1  UNL1       -0.0172
     27 C           4.7084    3.6452    0.0000 C.ar    1  UNL1        0.0983
     28 C           3.0545   -4.2236    0.0000 C.3     1  UNL1        0.0332
     29 C           6.3263    3.6265    0.0000 C.ar    1  UNL1        0.0921
     30 H           5.5216   -0.6041    0.0000 H       1  UNL1        0.0320
     31 H           3.3576   -2.0289    0.0000 H       1  UNL1        0.0741
     32 H           2.7768    0.4255    0.0000 H       1  UNL1        0.0310
     33 H           6.0500    0.7958    0.0000 H       1  UNL1        0.0268
     34 H           5.2530    0.7958    0.0000 H       1  UNL1        0.0268
     35 H           6.7296   -1.7617    0.0000 H       1  UNL1        0.0294
     36 H           7.1281   -1.0715    0.0000 H       1  UNL1        0.0294
     37 H           6.2592   -3.1557    0.0000 H       1  UNL1        0.0589
     38 H           6.7341   -2.3331    0.0000 H       1  UNL1        0.0589
     39 H           2.3746   -1.0938    0.0000 H       1  UNL1        0.0304
     40 H           2.7764   -1.7836    0.0000 H       1  UNL1        0.0304
     41 H           7.1281   -0.2868    0.0000 H       1  UNL1        0.0266
     42 H           6.7296    0.4035    0.0000 H       1  UNL1        0.0266
     43 H           4.1749   -2.0714    0.0000 H       1  UNL1        0.0565
     44 H           4.5734   -2.7617    0.0000 H       1  UNL1        0.0565
     45 H           5.0111    0.3935    0.0000 H       1  UNL1        0.0315
     46 H           5.2766    1.1796    0.0000 H       1  UNL1        0.0315
     47 H           5.0205    1.7844    0.0000 H       1  UNL1        0.0786
     48 H           1.8947    0.2828    0.0000 H       1  UNL1        0.0233
     49 H           1.3890   -0.4335    0.0000 H       1  UNL1        0.0233
     50 H           2.1053   -0.9391    0.0000 H       1  UNL1        0.0233
     51 H           5.6515   -3.2991    0.0000 H       1  UNL1        0.2094
     52 H           6.3649    2.1733    0.0000 H       1  UNL1        0.0653
     53 H           4.1210    3.8436    0.0000 H       1  UNL1        0.1033
     54 H           2.4345   -4.2308    0.0000 H       1  UNL1        0.0342
     55 H           3.0617   -4.8436    0.0000 H       1  UNL1        0.0342
     56 H           3.6744   -4.2165    0.0000 H       1  UNL1        0.0342
     57 H           6.9182    3.8113    0.0000 H       1  UNL1        0.1029
@<TRIPOS>BOND
     1    10     1    1
     2     1    16    1
     3    12     2    1
     4     2    25    1
     5     3    21    1
     6     3    22    1
     7     4    19    1
     8     4    51    1
     9     5    21    2
    10     6    25    2
    11     7    27   ar
    12     7    29   ar
    13     8     9    1
    14     8    10    1
    15     8    12    1
    16     8    19    1
    17     9    11    1
    18     9    14    1
    19     9    30    1
    20    10    15    1
    21    10    16    1
    22    11    13    1
    23    11    20    1
    24    11    21    1
    25    12    17    1
    26    12    31    1
    27    13    17    1
    28    13    23    1
    29    13    32    1
    30    14    18    1
    31    14    33    1
    32    14    34    1
    33    15    18    1
    34    15    35    1
    35    15    36    1
    36    16    37    1
    37    16    38    1
    38    17    39    1
    39    17    40    1
    40    18    41    1
    41    18    42    1
    42    19    43    1
    43    19    44    1
    44    20    22    1
    45    20    45    1
    46    20    46    1
    47    22    24    1
    48    22    47    1
    49    23    48    1
    50    23    49    1
    51    23    50    1
    52    24    26   ar
    53    24    27   ar
    54    25    28    1
    55    26    29   ar
    56    26    52    1
    57    27    53    1
    58    28    54    1
    59    28    55    1
    60    28    56    1
    61    29    57    1
