@<TRIPOS>MOLECULE
IMPHY000734
 26 28 0 0 0
SMALL
GASTEIGER

@<TRIPOS>ATOM
      1 O           4.6660    1.9827    0.0000 O.2     1  UNL1       -0.2866
      2 O           4.6660   -2.0173    0.0000 O.2     1  UNL1       -0.2850
      3 N           6.4260   -1.0520    0.0000 N.ar    1  UNL1       -0.2510
      4 C           5.5321    0.4827    0.0000 C.ar    1  UNL1        0.0543
      5 C           3.8000    0.4827    0.0000 C.ar    1  UNL1        0.0332
      6 C           3.8000   -0.5173    0.0000 C.ar    1  UNL1        0.0346
      7 C           5.5321   -0.5173    0.0000 C.ar    1  UNL1        0.1220
      8 C           4.6660    0.9827    0.0000 C.2     1  UNL1        0.1962
      9 C           6.4260    1.0174    0.0000 C.ar    1  UNL1       -0.0360
     10 C           4.6660   -1.0173    0.0000 C.2     1  UNL1        0.2126
     11 C           2.9061    1.0174    0.0000 C.ar    1  UNL1       -0.0502
     12 C           2.9061   -1.0520    0.0000 C.ar    1  UNL1       -0.0502
     13 C           7.3321    0.5035    0.0000 C.ar    1  UNL1       -0.0400
     14 C           6.4144    2.0173    0.0000 C.3     1  UNL1       -0.0389
     15 C           2.0000    0.5035    0.0000 C.ar    1  UNL1       -0.0610
     16 C           7.3321   -0.5381    0.0000 C.ar    1  UNL1        0.0287
     17 C           2.0000   -0.5381    0.0000 C.ar    1  UNL1       -0.0610
     18 H           2.9132    1.6373    0.0000 H       1  UNL1        0.0625
     19 H           2.9132   -1.6719    0.0000 H       1  UNL1        0.0625
     20 H           7.8678    0.8156    0.0000 H       1  UNL1        0.0635
     21 H           7.0344    2.0245    0.0000 H       1  UNL1        0.0278
     22 H           6.4073    2.6373    0.0000 H       1  UNL1        0.0278
     23 H           5.7945    2.0101    0.0000 H       1  UNL1        0.0278
     24 H           7.8678   -0.8502    0.0000 H       1  UNL1        0.0830
     25 H           1.4643    0.8156    0.0000 H       1  UNL1        0.0618
     26 H           1.4643   -0.8502    0.0000 H       1  UNL1        0.0618
@<TRIPOS>BOND
     1     1     8    2
     2     2    10    2
     3     3     7   ar
     4     3    16   ar
     5     4     7   ar
     6     4     8    1
     7     4     9   ar
     8     5     6   ar
     9     5     8    1
    10     5    11   ar
    11     6    10    1
    12     6    12   ar
    13     7    10    1
    14     9    13   ar
    15     9    14    1
    16    11    15   ar
    17    11    18    1
    18    12    17   ar
    19    12    19    1
    20    13    16   ar
    21    13    20    1
    22    14    21    1
    23    14    22    1
    24    14    23    1
    25    15    17   ar
    26    15    25    1
    27    16    24    1
    28    17    26    1
