@<TRIPOS>MOLECULE
IMPHY006467
 54 55 0 0 0
SMALL
GASTEIGER

@<TRIPOS>ATOM
      1 O           2.3100    3.5922    0.0000 O.3     1  UNL1       -0.4802
      2 O           3.8100    4.4582    0.0000 O.2     1  UNL1       -0.2504
      3 O           8.1158   -3.8382    0.0000 O.3     1  UNL1       -0.4775
      4 O           6.3839   -3.8182    0.0000 O.2     1  UNL1       -0.2458
      5 C           4.6760    1.2262    0.0000 C.3     1  UNL1       -0.0217
      6 C           4.6760    2.2262    0.0000 C.3     1  UNL1       -0.0193
      7 C           3.8100    2.7262    0.0000 C.3     1  UNL1        0.0681
      8 C           5.5700    0.6915    0.0000 C.3     1  UNL1       -0.0142
      9 C           3.8100    0.7262    0.0000 C.3     1  UNL1       -0.0468
     10 C           5.5700    2.7608    0.0000 C.3     1  UNL1       -0.0450
     11 C           2.9440    2.2262    0.0000 C.3     1  UNL1       -0.0372
     12 C           2.9440    1.2262    0.0000 C.3     1  UNL1       -0.0515
     13 C           4.6760    0.2262    0.0000 C.3     1  UNL1       -0.0587
     14 C           6.4760    2.2470    0.0000 C.3     1  UNL1       -0.0314
     15 C           6.4760    1.2053    0.0000 C.2     1  UNL1       -0.0730
     16 C           5.5584   -0.3084    0.0000 C.3     1  UNL1       -0.0423
     17 C           4.3100    3.5922    0.0000 C.3     1  UNL1       -0.0491
     18 C           3.3100    3.5922    0.0000 C.2     1  UNL1        0.3110
     19 C           6.4186   -0.8184    0.0000 C.3     1  UNL1       -0.0309
     20 C           7.3401    0.7020    0.0000 C.2     1  UNL1       -0.0992
     21 C           6.4070   -1.8184    0.0000 C.2     1  UNL1       -0.0659
     22 C           5.5353   -2.3083    0.0000 C.3     1  UNL1       -0.0433
     23 C           7.2672   -2.3283    0.0000 C.2     1  UNL1        0.0213
     24 C           7.2556   -3.3283    0.0000 C.2     1  UNL1        0.3295
     25 H           4.6695    3.0761    0.0000 H       1  UNL1        0.0317
     26 H           6.1039    0.3763    0.0000 H       1  UNL1        0.0351
     27 H           3.4115    0.2512    0.0000 H       1  UNL1        0.0271
     28 H           4.2085    0.2512    0.0000 H       1  UNL1        0.0271
     29 H           5.9636    3.2398    0.0000 H       1  UNL1        0.0271
     30 H           5.1654    3.2306    0.0000 H       1  UNL1        0.0271
     31 H           2.7319    2.8088    0.0000 H       1  UNL1        0.0276
     32 H           2.3334    2.1185    0.0000 H       1  UNL1        0.0276
     33 H           2.3334    1.3338    0.0000 H       1  UNL1        0.0266
     34 H           2.7319    0.6435    0.0000 H       1  UNL1        0.0266
     35 H           4.0560    0.2262    0.0000 H       1  UNL1        0.0235
     36 H           4.6760   -0.3938    0.0000 H       1  UNL1        0.0235
     37 H           5.2960    0.2262    0.0000 H       1  UNL1        0.0235
     38 H           7.0869    2.1409    0.0000 H       1  UNL1        0.0310
     39 H           6.6851    2.8307    0.0000 H       1  UNL1        0.0310
     40 H           4.9491   -0.1937    0.0000 H       1  UNL1        0.0274
     41 H           5.3396   -0.8886    0.0000 H       1  UNL1        0.0274
     42 H           4.8469    3.2822    0.0000 H       1  UNL1        0.0240
     43 H           4.6200    4.1291    0.0000 H       1  UNL1        0.0240
     44 H           3.7731    3.9022    0.0000 H       1  UNL1        0.0240
     45 H           7.0279   -0.9331    0.0000 H       1  UNL1        0.0310
     46 H           6.6374   -0.2383    0.0000 H       1  UNL1        0.0310
     47 H           7.3377    0.0820    0.0000 H       1  UNL1        0.0534
     48 H           7.8782    1.0099    0.0000 H       1  UNL1        0.0534
     49 H           2.0000    4.1291    0.0000 H       1  UNL1        0.2951
     50 H           5.2315   -1.7678    0.0000 H       1  UNL1        0.0274
     51 H           4.9948   -2.6121    0.0000 H       1  UNL1        0.0274
     52 H           5.8390   -2.8488    0.0000 H       1  UNL1        0.0274
     53 H           7.8077   -2.0246    0.0000 H       1  UNL1        0.0688
     54 H           8.1087   -4.4582    0.0000 H       1  UNL1        0.2954
@<TRIPOS>BOND
     1     1    18    1
     2     1    49    1
     3     2    18    2
     4     3    24    1
     5     3    54    1
     6     4    24    2
     7     5     6    1
     8     5     8    1
     9     5     9    1
    10     5    13    1
    11     6     7    1
    12     6    10    1
    13     6    25    1
    14     7    11    1
    15     7    17    1
    16     7    18    1
    17     8    15    1
    18     8    16    1
    19     8    26    1
    20     9    12    1
    21     9    27    1
    22     9    28    1
    23    10    14    1
    24    10    29    1
    25    10    30    1
    26    11    12    1
    27    11    31    1
    28    11    32    1
    29    12    33    1
    30    12    34    1
    31    13    35    1
    32    13    36    1
    33    13    37    1
    34    14    15    1
    35    14    38    1
    36    14    39    1
    37    15    20    2
    38    16    19    1
    39    16    40    1
    40    16    41    1
    41    17    42    1
    42    17    43    1
    43    17    44    1
    44    19    21    1
    45    19    45    1
    46    19    46    1
    47    20    47    1
    48    20    48    1
    49    21    22    1
    50    21    23    2
    51    22    50    1
    52    22    51    1
    53    22    52    1
    54    23    24    1
    55    23    53    1
