@<TRIPOS>MOLECULE
IMPHY001989
 41 43 0 0 0
SMALL
GASTEIGER

@<TRIPOS>ATOM
      1 O           6.0812   -0.8047    0.0000 O.2     1  UNL1       -0.4547
      2 O           9.6648   -1.7320    0.0000 O.3     1  UNL1       -0.5063
      3 O           9.6648    1.7320    0.0000 O.3     1  UNL1       -0.5063
      4 O           2.5369   -1.0000    0.0000 O.3     1  UNL1       -0.5066
      5 C           7.6648    0.0000    0.0000 C.ar    1  UNL1        0.0242
      6 C           9.6648    0.0000    0.0000 C.ar    1  UNL1        0.0391
      7 C           6.6648    0.0000    0.0000 C.ar    1  UNL1        0.1365
      8 C          10.6648    0.0000    0.0000 C.3     1  UNL1       -0.0023
      9 C           5.1350    0.5000    0.0000 C.ar    1  UNL1        0.0210
     10 C           9.1648   -0.8660    0.0000 C.ar    1  UNL1        0.1245
     11 C           9.1648    0.8660    0.0000 C.ar    1  UNL1        0.1245
     12 C           8.1648   -0.8660    0.0000 C.ar    1  UNL1       -0.0090
     13 C           8.1648    0.8660    0.0000 C.ar    1  UNL1       -0.0090
     14 C           5.1350   -0.5000    0.0000 C.ar    1  UNL1        0.1391
     15 C           6.0812    0.8047    0.0000 C.ar    1  UNL1       -0.0081
     16 C          11.1648    0.8660    0.0000 C.2     1  UNL1       -0.0807
     17 C           4.2690    1.0000    0.0000 C.ar    1  UNL1       -0.0475
     18 C           4.2690   -1.0000    0.0000 C.ar    1  UNL1        0.0227
     19 C          12.1648    0.8660    0.0000 C.2     1  UNL1       -0.0793
     20 C           3.4030   -0.5000    0.0000 C.ar    1  UNL1        0.1204
     21 C           3.4030    0.5000    0.0000 C.ar    1  UNL1       -0.0194
     22 C          12.6648    1.7320    0.0000 C.3     1  UNL1       -0.0440
     23 C          12.6648    0.0000    0.0000 C.3     1  UNL1       -0.0440
     24 H          10.5572   -0.6106    0.0000 H       1  UNL1        0.0358
     25 H          11.2474   -0.2121    0.0000 H       1  UNL1        0.0358
     26 H           7.8548   -1.4030    0.0000 H       1  UNL1        0.0661
     27 H           7.8548    1.4030    0.0000 H       1  UNL1        0.0661
     28 H           6.2738    1.3940    0.0000 H       1  UNL1        0.0661
     29 H          10.8548    1.4030    0.0000 H       1  UNL1        0.0575
     30 H           4.2690    1.6200    0.0000 H       1  UNL1        0.0626
     31 H           4.2690   -1.6200    0.0000 H       1  UNL1        0.0691
     32 H           2.8660    0.8100    0.0000 H       1  UNL1        0.0654
     33 H          13.2018    1.4220    0.0000 H       1  UNL1        0.0274
     34 H          12.1279   -0.3100    0.0000 H       1  UNL1        0.0274
     35 H          12.9748   -0.5369    0.0000 H       1  UNL1        0.0274
     36 H          13.2018    0.3100    0.0000 H       1  UNL1        0.0274
     37 H          12.9748    2.2690    0.0000 H       1  UNL1        0.0274
     38 H          12.1279    2.0420    0.0000 H       1  UNL1        0.0274
     39 H           9.3548   -2.2690    0.0000 H       1  UNL1        0.2921
     40 H           9.3548    2.2690    0.0000 H       1  UNL1        0.2921
     41 H           2.0000   -0.6900    0.0000 H       1  UNL1        0.2921
@<TRIPOS>BOND
     1     1     7   ar
     2     1    14   ar
     3     2    10    1
     4     2    39    1
     5     3    11    1
     6     3    40    1
     7     4    20    1
     8     4    41    1
     9     5     7    1
    10     5    12   ar
    11     5    13   ar
    12     6     8    1
    13     6    10   ar
    14     6    11   ar
    15     7    15   ar
    16     8    16    1
    17     8    24    1
    18     8    25    1
    19     9    14   ar
    20     9    15   ar
    21     9    17   ar
    22    10    12   ar
    23    11    13   ar
    24    12    26    1
    25    13    27    1
    26    14    18   ar
    27    15    28    1
    28    16    19    2
    29    16    29    1
    30    17    21   ar
    31    17    30    1
    32    18    20   ar
    33    18    31    1
    34    19    22    1
    35    19    23    1
    36    20    21   ar
    37    21    32    1
    38    22    33    1
    39    22    37    1
    40    22    38    1
    41    23    34    1
    42    23    35    1
    43    23    36    1
