@<TRIPOS>MOLECULE
IMPHY008013
 36 38 0 0 0
SMALL
GASTEIGER

@<TRIPOS>ATOM
      1 O           2.0000   -2.8775    0.0000 O.2     1  UNL1       -0.2679
      2 N           6.0616   -1.6517    0.0000 N.3     1  UNL1       -0.3174
      3 N           2.9812   -1.4041    0.0000 N.ar    1  UNL1       -0.3259
      4 C           5.9744   -0.6555    0.0000 C.3     1  UNL1        0.0694
      5 C           6.2332    0.3104    0.0000 C.3     1  UNL1        0.0058
      6 C           5.4966    1.2930    0.0000 C.2     1  UNL1       -0.0422
      7 C           7.2460   -1.4502    0.0000 C.3     1  UNL1       -0.0057
      8 C           4.7533   -1.5212    0.0000 C.ar    1  UNL1       -0.0038
      9 C           4.1999   -0.0007    0.0000 C.3     1  UNL1       -0.0020
     10 C           3.9243   -0.9620    0.0000 C.ar    1  UNL1        0.0252
     11 C           8.0232   -0.8208    0.0000 C.2     1  UNL1       -0.0736
     12 C           7.6648    0.1128    0.0000 C.2     1  UNL1       -0.0774
     13 C           4.9966    2.1591    0.0000 C.2     1  UNL1       -0.0852
     14 C           4.6967   -2.5613    0.0000 C.ar    1  UNL1       -0.0497
     15 C           8.9891   -1.0796    0.0000 C.3     1  UNL1       -0.0437
     16 C           3.7640   -3.0251    0.0000 C.ar    1  UNL1        0.0031
     17 C           2.9005   -2.4426    0.0000 C.ar    1  UNL1        0.2489
     18 C           5.4966    3.0251    0.0000 C.3     1  UNL1       -0.0465
     19 H           6.4532    1.1315    0.0000 H       1  UNL1        0.0392
     20 H           6.8615   -1.9365    0.0000 H       1  UNL1        0.0334
     21 H           7.6870   -1.8860    0.0000 H       1  UNL1        0.0334
     22 H           4.1949    0.6193    0.0000 H       1  UNL1        0.0336
     23 H           3.5856    0.0831    0.0000 H       1  UNL1        0.0336
     24 H           8.0502    0.5984    0.0000 H       1  UNL1        0.0578
     25 H           6.6234   -1.9137    0.0000 H       1  UNL1        0.1193
     26 H           5.5536   -2.0073    0.0000 H       1  UNL1        0.1193
     27 H           4.3766    2.1591    0.0000 H       1  UNL1        0.0570
     28 H           5.2147   -2.9020    0.0000 H       1  UNL1        0.0623
     29 H           2.4712   -1.0515    0.0000 H       1  UNL1        0.1686
     30 H           8.8286   -1.6785    0.0000 H       1  UNL1        0.0274
     31 H           9.5880   -1.2401    0.0000 H       1  UNL1        0.0274
     32 H           9.1496   -0.4808    0.0000 H       1  UNL1        0.0274
     33 H           3.7232   -3.6437    0.0000 H       1  UNL1        0.0672
     34 H           6.0335    2.7151    0.0000 H       1  UNL1        0.0272
     35 H           5.8066    3.5620    0.0000 H       1  UNL1        0.0272
     36 H           4.9596    3.3351    0.0000 H       1  UNL1        0.0272
@<TRIPOS>BOND
     1     1    17    2
     2     4     2    1
     3     2    25    1
     4     2    26    1
     5     3    10   ar
     6     3    17   ar
     7     3    29    1
     8     4     6    1
     9     4     7    1
    10     4     8    1
    11     5     6    1
    12     5     9    1
    13     5    12    1
    14     5    19    1
    15     6    13    2
    16     7    11    1
    17     7    20    1
    18     7    21    1
    19     8    10   ar
    20     8    14   ar
    21     9    10    1
    22     9    22    1
    23     9    23    1
    24    11    12    2
    25    11    15    1
    26    12    24    1
    27    13    18    1
    28    13    27    1
    29    14    16   ar
    30    14    28    1
    31    15    30    1
    32    15    31    1
    33    15    32    1
    34    16    17   ar
    35    16    33    1
    36    18    34    1
    37    18    35    1
    38    18    36    1
