@<TRIPOS>MOLECULE
IMPHY007156
 25 25 0 0 0
SMALL
GASTEIGER

@<TRIPOS>ATOM
      1 O           3.7690    1.6550    0.0000 O.3     1  UNL1       -0.3772
      2 O           6.0010   -1.2110    0.0000 O.3     1  UNL1       -0.3890
      3 O           2.5369   -1.2110    0.0000 O.3     1  UNL1       -0.3890
      4 O           4.2690   -2.2110    0.0000 O.3     1  UNL1       -0.3867
      5 O           5.7690    1.6550    0.0000 O.3     1  UNL1       -0.4786
      6 O           4.2690    2.5210    0.0000 O.2     1  UNL1       -0.2478
      7 C           4.2690    0.7890    0.0000 C.3     1  UNL1        0.1667
      8 C           5.1350    0.2890    0.0000 C.3     1  UNL1        0.0152
      9 C           3.4030    0.2890    0.0000 C.3     1  UNL1        0.0152
     10 C           5.1350   -0.7110    0.0000 C.3     1  UNL1        0.0866
     11 C           3.4030   -0.7110    0.0000 C.3     1  UNL1        0.0866
     12 C           4.2690   -1.2110    0.0000 C.3     1  UNL1        0.1070
     13 C           4.7690    1.6550    0.0000 C.2     1  UNL1        0.3369
     14 H           5.7456    0.1813    0.0000 H       1  UNL1        0.0324
     15 H           5.3471    0.8716    0.0000 H       1  UNL1        0.0324
     16 H           3.1909    0.8716    0.0000 H       1  UNL1        0.0324
     17 H           2.7924    0.1813    0.0000 H       1  UNL1        0.0324
     18 H           5.6720   -0.4010    0.0000 H       1  UNL1        0.0621
     19 H           3.4030   -1.3310    0.0000 H       1  UNL1        0.0621
     20 H           4.8059   -1.5210    0.0000 H       1  UNL1        0.0645
     21 H           3.1490    1.6550    0.0000 H       1  UNL1        0.2109
     22 H           6.5380   -0.9010    0.0000 H       1  UNL1        0.2099
     23 H           2.0000   -0.9010    0.0000 H       1  UNL1        0.2099
     24 H           3.7320   -2.5210    0.0000 H       1  UNL1        0.2100
     25 H           6.0790    2.1919    0.0000 H       1  UNL1        0.2951
@<TRIPOS>BOND
     1     1     7    1
     2     1    21    1
     3    10     2    1
     4     2    22    1
     5    11     3    1
     6     3    23    1
     7     4    12    1
     8     4    24    1
     9     5    13    1
    10     5    25    1
    11     6    13    2
    12     7     8    1
    13     7     9    1
    14     7    13    1
    15     8    10    1
    16     8    14    1
    17     8    15    1
    18     9    11    1
    19     9    16    1
    20     9    17    1
    21    10    12    1
    22    10    18    1
    23    11    12    1
    24    11    19    1
    25    12    20    1
