@<TRIPOS>MOLECULE
IMPHY001910
 55 58 0 0 0
SMALL
GASTEIGER

@<TRIPOS>ATOM
      1 O           7.2342    0.6698    0.0000 O.2     1  UNL1       -0.4535
      2 O           4.5841   -0.8787    0.0000 O.3     1  UNL1       -0.4791
      3 O           4.6361    2.1698    0.0000 O.2     1  UNL1       -0.2865
      4 O           5.4803    3.7012    0.0000 O.3     1  UNL1       -0.5058
      5 O           9.0201    3.7149    0.0000 O.3     1  UNL1       -0.5062
      6 O           6.4213   -4.0269    0.0000 O.3     1  UNL1       -0.5066
      7 C           5.5021    0.6698    0.0000 C.ar    1  UNL1        0.0869
      8 C           4.5921    0.1629    0.0000 C.3     1  UNL1        0.1507
      9 C           6.3682    0.1698    0.0000 C.ar    1  UNL1        0.1498
     10 C           6.3682    2.1698    0.0000 C.ar    1  UNL1        0.1062
     11 C           7.2342    1.6698    0.0000 C.ar    1  UNL1        0.1497
     12 C           6.3842   -0.8717    0.0000 C.ar    1  UNL1        0.0597
     13 C           5.5021    1.6698    0.0000 C.ar    1  UNL1        0.2036
     14 C           8.1442    2.1766    0.0000 C.ar    1  UNL1        0.0409
     15 C           5.4862   -1.3995    0.0000 C.ar    1  UNL1        0.1360
     16 C           3.7319    0.6729    0.0000 C.2     1  UNL1       -0.0406
     17 C           6.3521    3.2113    0.0000 C.ar    1  UNL1        0.1347
     18 C           9.0044    1.6666    0.0000 C.3     1  UNL1       -0.0023
     19 C           8.1522    3.2182    0.0000 C.ar    1  UNL1        0.1273
     20 C           7.3361   -1.3924    0.0000 C.ar    1  UNL1       -0.0441
     21 C           7.2501    3.7390    0.0000 C.ar    1  UNL1        0.0225
     22 C           5.4778   -2.4844    0.0000 C.ar    1  UNL1        0.0223
     23 C           2.8602    0.1830    0.0000 C.2     1  UNL1       -0.0759
     24 C           7.3529   -2.4772    0.0000 C.ar    1  UNL1       -0.0193
     25 C           6.4174   -3.0269    0.0000 C.ar    1  UNL1        0.1204
     26 C           9.8761    2.1566    0.0000 C.2     1  UNL1       -0.0807
     27 C           2.0000    0.6929    0.0000 C.3     1  UNL1       -0.0439
     28 C           2.8486   -0.8170    0.0000 C.3     1  UNL1       -0.0439
     29 C          10.7363    1.6466    0.0000 C.2     1  UNL1       -0.0793
     30 C          11.6080    2.1366    0.0000 C.3     1  UNL1       -0.0440
     31 C          10.7247    0.6467    0.0000 C.3     1  UNL1       -0.0440
     32 H           4.0522   -0.1419    0.0000 H       1  UNL1        0.0833
     33 H           3.7391    1.2929    0.0000 H       1  UNL1        0.0611
     34 H           8.6004    1.1963    0.0000 H       1  UNL1        0.0358
     35 H           9.3974    1.1871    0.0000 H       1  UNL1        0.0358
     36 H           7.8670   -1.0721    0.0000 H       1  UNL1        0.0627
     37 H           7.2477    4.3590    0.0000 H       1  UNL1        0.0691
     38 H           4.9397   -2.7924    0.0000 H       1  UNL1        0.0691
     39 H           7.8934   -2.7810    0.0000 H       1  UNL1        0.0654
     40 H           9.8833    2.7766    0.0000 H       1  UNL1        0.0575
     41 H           2.2287   -0.8098    0.0000 H       1  UNL1        0.0274
     42 H           2.3162    1.2262    0.0000 H       1  UNL1        0.0274
     43 H           1.4667    1.0091    0.0000 H       1  UNL1        0.0274
     44 H           1.6838    0.1596    0.0000 H       1  UNL1        0.0274
     45 H           2.8414   -1.4369    0.0000 H       1  UNL1        0.0274
     46 H           3.4686   -0.8241    0.0000 H       1  UNL1        0.0274
     47 H           5.4732    4.3212    0.0000 H       1  UNL1        0.2922
     48 H           9.0225    4.3349    0.0000 H       1  UNL1        0.2921
     49 H          11.9118    1.5961    0.0000 H       1  UNL1        0.0274
     50 H          12.1485    2.4403    0.0000 H       1  UNL1        0.0274
     51 H          11.3043    2.6770    0.0000 H       1  UNL1        0.0274
     52 H          10.1048    0.6538    0.0000 H       1  UNL1        0.0274
     53 H          10.7176    0.0267    0.0000 H       1  UNL1        0.0274
     54 H          11.3447    0.6395    0.0000 H       1  UNL1        0.0274
     55 H           6.9594   -4.3349    0.0000 H       1  UNL1        0.2921
@<TRIPOS>BOND
     1     1     9   ar
     2     1    11   ar
     3     2     8    1
     4     2    15    1
     5     3    13    2
     6     4    17    1
     7     4    47    1
     8     5    19    1
     9     5    48    1
    10     6    25    1
    11     6    55    1
    12     7     8    1
    13     7     9   ar
    14     7    13   ar
    15     8    16    1
    16     8    32    1
    17     9    12    1
    18    10    11   ar
    19    10    13   ar
    20    10    17   ar
    21    11    14   ar
    22    12    15   ar
    23    12    20   ar
    24    14    18    1
    25    14    19   ar
    26    15    22   ar
    27    16    23    2
    28    16    33    1
    29    17    21   ar
    30    18    26    1
    31    18    34    1
    32    18    35    1
    33    19    21   ar
    34    20    24   ar
    35    20    36    1
    36    21    37    1
    37    22    25   ar
    38    22    38    1
    39    23    27    1
    40    23    28    1
    41    24    25   ar
    42    24    39    1
    43    26    29    2
    44    26    40    1
    45    27    42    1
    46    27    43    1
    47    27    44    1
    48    28    41    1
    49    28    45    1
    50    28    46    1
    51    29    30    1
    52    29    31    1
    53    30    49    1
    54    30    50    1
    55    30    51    1
    56    31    52    1
    57    31    53    1
    58    31    54    1
