@<TRIPOS>MOLECULE
IMPHY008279
 29 31 0 0 0
SMALL
GASTEIGER

@<TRIPOS>ATOM
      1 O           7.3424   -0.7824    0.0000 O.2     1  UNL1       -0.4467
      2 O           5.5301    2.0223    0.0000 O.3     1  UNL1       -0.4937
      3 O           3.7817   -2.0123    0.0000 O.3     1  UNL1       -0.4894
      4 O           2.0000   -1.0019    0.0000 O.2     1  UNL1       -0.2839
      5 N           5.5301   -0.9777    0.0000 N.ar    1  UNL1       -0.3218
      6 C           4.6641    0.5223    0.0000 C.ar    1  UNL1        0.0446
      7 C           4.6641   -0.4777    0.0000 C.ar    1  UNL1        0.0987
      8 C           6.3961    0.5223    0.0000 C.ar    1  UNL1        0.0801
      9 C           5.5301    1.0223    0.0000 C.ar    1  UNL1        0.1415
     10 C           6.3961   -0.4777    0.0000 C.ar    1  UNL1        0.2095
     11 C           3.7702   -1.0124    0.0000 C.ar    1  UNL1        0.1907
     12 C           3.7702    1.0570    0.0000 C.ar    1  UNL1       -0.0452
     13 C           7.3424    0.8270    0.0000 C.ar    1  UNL1       -0.0110
     14 C           2.8641   -0.4985    0.0000 C.ar    1  UNL1        0.2223
     15 C           2.8641    0.5431    0.0000 C.ar    1  UNL1       -0.0104
     16 C           7.9260    0.0223    0.0000 C.ar    1  UNL1        0.0951
     17 C           6.3961    2.5223    0.0000 C.3     1  UNL1        0.0788
     18 C           2.9215   -2.5223    0.0000 C.3     1  UNL1        0.0791
     19 H           5.5301   -1.5977    0.0000 H       1  UNL1        0.1689
     20 H           3.7773    1.6769    0.0000 H       1  UNL1        0.0626
     21 H           7.5350    1.4163    0.0000 H       1  UNL1        0.0657
     22 H           2.3284    0.8552    0.0000 H       1  UNL1        0.0657
     23 H           8.5460    0.0223    0.0000 H       1  UNL1        0.1030
     24 H           6.7062    1.9854    0.0000 H       1  UNL1        0.0660
     25 H           6.9331    2.8323    0.0000 H       1  UNL1        0.0660
     26 H           6.0862    3.0592    0.0000 H       1  UNL1        0.0660
     27 H           2.6054   -1.9890    0.0000 H       1  UNL1        0.0660
     28 H           2.3882   -2.8385    0.0000 H       1  UNL1        0.0660
     29 H           3.2377   -3.0556    0.0000 H       1  UNL1        0.0660
@<TRIPOS>BOND
     1     1    10   ar
     2     1    16   ar
     3     2     9    1
     4     2    17    1
     5     3    11    1
     6     3    18    1
     7     4    14    2
     8     5     7   ar
     9     5    10   ar
    10     5    19    1
    11     6     7    1
    12     6     9   ar
    13     6    12   ar
    14     7    11   ar
    15     8     9   ar
    16     8    10   ar
    17     8    13   ar
    18    11    14   ar
    19    12    15   ar
    20    12    20    1
    21    13    16   ar
    22    13    21    1
    23    14    15   ar
    24    15    22    1
    25    16    23    1
    26    17    24    1
    27    17    25    1
    28    17    26    1
    29    18    27    1
    30    18    28    1
    31    18    29    1
