@<TRIPOS>MOLECULE
IMPHY002215
 28 28 0 0 0
SMALL
GASTEIGER

@<TRIPOS>ATOM
      1 O           2.5369   -1.0000    0.0000 O.3     1  UNL1       -0.3920
      2 N           6.0010   -1.0000    0.0000 N.2     1  UNL1       -0.2894
      3 C           5.1350   -0.5000    0.0000 C.3     1  UNL1        0.0531
      4 C           5.1350    0.5000    0.0000 C.3     1  UNL1       -0.0301
      5 C           4.2690   -1.0000    0.0000 C.3     1  UNL1       -0.0047
      6 C           6.0010    1.0000    0.0000 C.3     1  UNL1       -0.0460
      7 C           6.8671    0.5000    0.0000 C.3     1  UNL1       -0.0149
      8 C           3.4030   -0.5000    0.0000 C.3     1  UNL1        0.0544
      9 C           6.8671   -0.5000    0.0000 C.2     1  UNL1        0.0107
     10 C           3.4030    0.5000    0.0000 C.3     1  UNL1       -0.0389
     11 C           7.7331   -1.0000    0.0000 C.3     1  UNL1       -0.0267
     12 H           5.1350   -1.1200    0.0000 H       1  UNL1        0.0545
     13 H           4.9230    1.0826    0.0000 H       1  UNL1        0.0286
     14 H           4.5244    0.3923    0.0000 H       1  UNL1        0.0286
     15 H           3.8705   -1.4750    0.0000 H       1  UNL1        0.0310
     16 H           4.6675   -1.4750    0.0000 H       1  UNL1        0.0310
     17 H           6.3996    1.4750    0.0000 H       1  UNL1        0.0269
     18 H           5.6025    1.4750    0.0000 H       1  UNL1        0.0269
     19 H           7.4776    0.3923    0.0000 H       1  UNL1        0.0325
     20 H           7.0791    1.0826    0.0000 H       1  UNL1        0.0325
     21 H           3.4030   -1.1200    0.0000 H       1  UNL1        0.0591
     22 H           4.0230    0.5000    0.0000 H       1  UNL1        0.0254
     23 H           3.4030    1.1200    0.0000 H       1  UNL1        0.0254
     24 H           2.7830    0.5000    0.0000 H       1  UNL1        0.0254
     25 H           7.4231   -1.5369    0.0000 H       1  UNL1        0.0289
     26 H           8.2700   -1.3100    0.0000 H       1  UNL1        0.0289
     27 H           8.0431   -0.4631    0.0000 H       1  UNL1        0.0289
     28 H           2.0000   -0.6900    0.0000 H       1  UNL1        0.2098
@<TRIPOS>BOND
     1     8     1    1
     2     1    28    1
     3     2     3    1
     4     2     9    2
     5     3     4    1
     6     3     5    1
     7     3    12    1
     8     4     6    1
     9     4    13    1
    10     4    14    1
    11     5     8    1
    12     5    15    1
    13     5    16    1
    14     6     7    1
    15     6    17    1
    16     6    18    1
    17     7     9    1
    18     7    19    1
    19     7    20    1
    20     8    10    1
    21     8    21    1
    22     9    11    1
    23    10    22    1
    24    10    23    1
    25    10    24    1
    26    11    25    1
    27    11    26    1
    28    11    27    1
