@<TRIPOS>MOLECULE
IMPHY003739
 40 43 0 0 0
SMALL
GASTEIGER

@<TRIPOS>ATOM
      1 O           3.7782    1.3036    0.0000 O.3     1  UNL1       -0.4908
      2 O           5.5442    2.3414    0.0000 O.3     1  UNL1       -0.4914
      3 N           6.3903   -2.2248    0.0000 N.3     1  UNL1       -0.3087
      4 C           5.5321   -1.7278    0.0000 C.3     1  UNL1        0.0378
      5 C           5.5321   -0.7278    0.0000 C.ar    1  UNL1       -0.0155
      6 C           4.6660   -2.2278    0.0000 C.3     1  UNL1       -0.0075
      7 C           6.4421   -0.2210    0.0000 C.ar    1  UNL1       -0.0372
      8 C           4.6660   -0.2278    0.0000 C.ar    1  UNL1        0.0326
      9 C           7.2814   -0.7492    0.0000 C.3     1  UNL1       -0.0146
     10 C           7.2558   -1.7406    0.0000 C.3     1  UNL1        0.0004
     11 C           3.8000   -1.7278    0.0000 C.ar    1  UNL1       -0.0377
     12 C           3.8000   -0.7278    0.0000 C.ar    1  UNL1       -0.0107
     13 C           4.6500    0.8137    0.0000 C.ar    1  UNL1        0.1695
     14 C           6.4501    0.8206    0.0000 C.ar    1  UNL1       -0.0127
     15 C           5.5480    1.3414    0.0000 C.ar    1  UNL1        0.1624
     16 C           2.9061   -2.2625    0.0000 C.ar    1  UNL1       -0.0579
     17 C           2.9061   -0.1932    0.0000 C.ar    1  UNL1       -0.0536
     18 C           2.0000   -1.7486    0.0000 C.ar    1  UNL1       -0.0615
     19 C           2.0000   -0.7070    0.0000 C.ar    1  UNL1       -0.0612
     20 C           3.7667    2.3036    0.0000 C.3     1  UNL1        0.0790
     21 C           6.4082    2.8448    0.0000 C.3     1  UNL1        0.0790
     22 H           5.5315   -2.5778    0.0000 H       1  UNL1        0.0513
     23 H           4.2675   -2.7028    0.0000 H       1  UNL1        0.0332
     24 H           5.0646   -2.7028    0.0000 H       1  UNL1        0.0332
     25 H           7.8885   -0.8751    0.0000 H       1  UNL1        0.0326
     26 H           7.5131   -0.1742    0.0000 H       1  UNL1        0.0326
     27 H           6.3857   -2.8448    0.0000 H       1  UNL1        0.1225
     28 H           7.4575   -2.3268    0.0000 H       1  UNL1        0.0427
     29 H           7.8685   -1.6462    0.0000 H       1  UNL1        0.0427
     30 H           6.9882    1.1285    0.0000 H       1  UNL1        0.0658
     31 H           2.9132   -2.8825    0.0000 H       1  UNL1        0.0620
     32 H           2.9132    0.4268    0.0000 H       1  UNL1        0.0624
     33 H           1.4643   -2.0607    0.0000 H       1  UNL1        0.0618
     34 H           1.4643   -0.3950    0.0000 H       1  UNL1        0.0618
     35 H           4.3866    2.3107    0.0000 H       1  UNL1        0.0660
     36 H           3.7595    2.9235    0.0000 H       1  UNL1        0.0660
     37 H           3.1467    2.2964    0.0000 H       1  UNL1        0.0660
     38 H           6.7203    2.3090    0.0000 H       1  UNL1        0.0660
     39 H           6.9440    3.1568    0.0000 H       1  UNL1        0.0660
     40 H           6.0962    3.3805    0.0000 H       1  UNL1        0.0660
@<TRIPOS>BOND
     1     1    13    1
     2     1    20    1
     3     2    15    1
     4     2    21    1
     5     3     4    1
     6     3    10    1
     7     3    27    1
     8     4     5    1
     9     4     6    1
    10     4    22    1
    11     5     7   ar
    12     5     8   ar
    13     6    11    1
    14     6    23    1
    15     6    24    1
    16     7     9    1
    17     7    14   ar
    18     8    12    1
    19     8    13   ar
    20     9    10    1
    21     9    25    1
    22     9    26    1
    23    10    28    1
    24    10    29    1
    25    11    12   ar
    26    11    16   ar
    27    12    17   ar
    28    13    15   ar
    29    14    15   ar
    30    14    30    1
    31    16    18   ar
    32    16    31    1
    33    17    19   ar
    34    17    32    1
    35    18    19   ar
    36    18    33    1
    37    19    34    1
    38    20    35    1
    39    20    36    1
    40    20    37    1
    41    21    38    1
    42    21    39    1
    43    21    40    1
