@<TRIPOS>MOLECULE
IMPHY011367
 34 37 0 0 0
SMALL
GASTEIGER

@<TRIPOS>ATOM
      1 O           9.0764   -0.4453    0.0000 O.3     1  UNL1       -0.4526
      2 O           9.0764   -2.0547    0.0000 O.3     1  UNL1       -0.4526
      3 O           4.6660    2.2500    0.0000 O.2     1  UNL1       -0.2871
      4 N           4.6660   -0.7500    0.0000 N.ar    1  UNL1       -0.3427
      5 C           5.5321   -0.2500    0.0000 C.ar    1  UNL1        0.0530
      6 C           3.8000   -0.2500    0.0000 C.ar    1  UNL1        0.0529
      7 C           6.3981   -0.7500    0.0000 C.ar    1  UNL1        0.0023
      8 C           3.8000    0.7500    0.0000 C.ar    1  UNL1        0.0452
      9 C           5.5321    0.7500    0.0000 C.ar    1  UNL1        0.0098
     10 C           7.2641   -0.2500    0.0000 C.ar    1  UNL1       -0.0070
     11 C           4.6660    1.2500    0.0000 C.ar    1  UNL1        0.1900
     12 C           8.1301   -0.7500    0.0000 C.ar    1  UNL1        0.1669
     13 C           6.3981   -1.7500    0.0000 C.ar    1  UNL1       -0.0489
     14 C           4.6660   -1.7500    0.0000 C.3     1  UNL1        0.0124
     15 C           8.1301   -1.7500    0.0000 C.ar    1  UNL1        0.1663
     16 C           2.9061   -0.7847    0.0000 C.ar    1  UNL1       -0.0375
     17 C           7.2641   -2.2500    0.0000 C.ar    1  UNL1       -0.0155
     18 C           2.9061    1.2847    0.0000 C.ar    1  UNL1       -0.0490
     19 C           2.0000   -0.2708    0.0000 C.ar    1  UNL1       -0.0598
     20 C           2.0000    0.7708    0.0000 C.ar    1  UNL1       -0.0610
     21 C           9.6600   -1.2500    0.0000 C.3     1  UNL1        0.2332
     22 H           6.0690    1.0600    0.0000 H       1  UNL1        0.0677
     23 H           7.2641    0.3700    0.0000 H       1  UNL1        0.0662
     24 H           5.8612   -2.0600    0.0000 H       1  UNL1        0.0625
     25 H           4.0460   -1.7500    0.0000 H       1  UNL1        0.0456
     26 H           4.6660   -2.3700    0.0000 H       1  UNL1        0.0456
     27 H           5.2860   -1.7500    0.0000 H       1  UNL1        0.0456
     28 H           2.9132   -1.4046    0.0000 H       1  UNL1        0.0638
     29 H           7.2641   -2.8700    0.0000 H       1  UNL1        0.0655
     30 H           2.9132    1.9046    0.0000 H       1  UNL1        0.0625
     31 H           1.4643   -0.5829    0.0000 H       1  UNL1        0.0618
     32 H          10.1208   -1.6647    0.0000 H       1  UNL1        0.1166
     33 H          10.1208   -0.8353    0.0000 H       1  UNL1        0.1166
     34 H           1.4643    1.0829    0.0000 H       1  UNL1        0.0618
@<TRIPOS>BOND
     1     1    12    1
     2     1    21    1
     3     2    15    1
     4     2    21    1
     5     3    11    2
     6     4     5   ar
     7     4     6   ar
     8     4    14    1
     9     5     7    1
    10     5     9   ar
    11     6     8   ar
    12     6    16   ar
    13     7    10   ar
    14     7    13   ar
    15     8    11   ar
    16     8    18   ar
    17     9    11   ar
    18     9    22    1
    19    10    12   ar
    20    10    23    1
    21    12    15   ar
    22    13    17   ar
    23    13    24    1
    24    14    25    1
    25    14    26    1
    26    14    27    1
    27    15    17   ar
    28    16    19   ar
    29    16    28    1
    30    17    29    1
    31    18    20   ar
    32    18    30    1
    33    19    20   ar
    34    19    31    1
    35    20    34    1
    36    21    32    1
    37    21    33    1
