@<TRIPOS>MOLECULE
IMPHY005370
 49 52 0 0 0
SMALL
GASTEIGER

@<TRIPOS>ATOM
      1 O           5.8626   -1.2143    0.0000 O.3     1  UNL1       -0.4561
      2 O           3.5005   -3.5052    0.0000 O.2     1  UNL1       -0.2962
      3 O           5.8440   -2.9718    0.0000 O.2     1  UNL1       -0.2497
      4 C           3.5126   -0.4359    0.0000 C.3     1  UNL1       -0.0173
      5 C           4.3786   -0.9359    0.0000 C.3     1  UNL1        0.0281
      6 C           3.5126    0.5641    0.0000 C.3     1  UNL1       -0.0139
      7 C           4.3947   -1.9774    0.0000 C.3     1  UNL1        0.1296
      8 C           5.2446   -0.4359    0.0000 C.3     1  UNL1        0.1262
      9 C           2.6026   -0.9428    0.0000 C.3     1  UNL1       -0.0399
     10 C           4.3786    1.0641    0.0000 C.2     1  UNL1       -0.0656
     11 C           2.6026    1.0709    0.0000 C.3     1  UNL1       -0.0452
     12 C           2.6466    0.0641    0.0000 C.3     1  UNL1       -0.0586
     13 C           5.2446    0.5641    0.0000 C.2     1  UNL1       -0.0441
     14 C           2.5946   -1.9844    0.0000 C.3     1  UNL1        0.0075
     15 C           3.4966   -2.5052    0.0000 C.2     1  UNL1        0.1503
     16 C           4.3947    2.1056    0.0000 C.3     1  UNL1       -0.0225
     17 C           3.4966    2.6334    0.0000 C.3     1  UNL1       -0.0106
     18 C           2.5946    2.1125    0.0000 C.3     1  UNL1       -0.0433
     19 C           5.3827   -2.0846    0.0000 C.2     1  UNL1        0.3213
     20 C           4.9047   -2.8376    0.0000 C.3     1  UNL1       -0.0421
     21 C           4.0000    3.4974    0.0000 C.3     1  UNL1       -0.0558
     22 C           3.0000    3.5013    0.0000 C.2     1  UNL1       -0.0849
     23 C           2.0000    3.5052    0.0000 C.2     1  UNL1       -0.1021
     24 H           3.6425   -1.3609    0.0000 H       1  UNL1        0.0360
     25 H           4.2487    0.1391    0.0000 H       1  UNL1        0.0351
     26 H           6.0473   -0.1560    0.0000 H       1  UNL1        0.0783
     27 H           2.3980   -0.3575    0.0000 H       1  UNL1        0.0275
     28 H           1.9910   -1.0441    0.0000 H       1  UNL1        0.0275
     29 H           1.9910    1.1723    0.0000 H       1  UNL1        0.0271
     30 H           2.3980    0.4857    0.0000 H       1  UNL1        0.0271
     31 H           2.9566    0.6010    0.0000 H       1  UNL1        0.0235
     32 H           2.1096    0.3741    0.0000 H       1  UNL1        0.0235
     33 H           2.3366   -0.4728    0.0000 H       1  UNL1        0.0235
     34 H           5.7816    0.8741    0.0000 H       1  UNL1        0.0608
     35 H           1.9846   -1.8736    0.0000 H       1  UNL1        0.0342
     36 H           2.3810   -2.5664    0.0000 H       1  UNL1        0.0342
     37 H           5.0038    1.9901    0.0000 H       1  UNL1        0.0318
     38 H           4.6127    2.6860    0.0000 H       1  UNL1        0.0318
     39 H           2.3810    2.6946    0.0000 H       1  UNL1        0.0274
     40 H           1.9846    2.0017    0.0000 H       1  UNL1        0.0274
     41 H           4.3713   -3.1538    0.0000 H       1  UNL1        0.0244
     42 H           5.2209   -3.3709    0.0000 H       1  UNL1        0.0244
     43 H           5.4380   -2.5214    0.0000 H       1  UNL1        0.0244
     44 H           4.5357    3.1854    0.0000 H       1  UNL1        0.0238
     45 H           4.3120    4.0332    0.0000 H       1  UNL1        0.0238
     46 H           3.4642    3.8095    0.0000 H       1  UNL1        0.0238
     47 H           3.3121    4.0370    0.0000 H       1  UNL1        0.0572
     48 H           1.6921    4.0433    0.0000 H       1  UNL1        0.0532
     49 H           1.6879    2.9694    0.0000 H       1  UNL1        0.0532
@<TRIPOS>BOND
     1     1     8    1
     2     1    19    1
     3     2    15    2
     4     3    19    2
     5     4     5    1
     6     4     6    1
     7     4     9    1
     8     4    12    1
     9     5     7    1
    10     5     8    1
    11     5    24    1
    12     6    10    1
    13     6    11    1
    14     6    25    1
    15     7    15    1
    16     7    19    1
    17     7    20    1
    18     8    13    1
    19     8    26    1
    20     9    14    1
    21     9    27    1
    22     9    28    1
    23    10    13    2
    24    10    16    1
    25    11    18    1
    26    11    29    1
    27    11    30    1
    28    12    31    1
    29    12    32    1
    30    12    33    1
    31    13    34    1
    32    14    15    1
    33    14    35    1
    34    14    36    1
    35    16    17    1
    36    16    37    1
    37    16    38    1
    38    17    18    1
    39    17    21    1
    40    17    22    1
    41    18    39    1
    42    18    40    1
    43    20    41    1
    44    20    42    1
    45    20    43    1
    46    21    44    1
    47    21    45    1
    48    21    46    1
    49    22    23    2
    50    22    47    1
    51    23    48    1
    52    23    49    1
