@<TRIPOS>MOLECULE
IMPHY006797
 51 53 0 0 0
SMALL
GASTEIGER

@<TRIPOS>ATOM
      1 O           8.0321   -1.9513    0.0000 O.3     1  UNL1       -0.5057
      2 O           7.0864   -4.8492    0.0000 O.2     1  UNL1       -0.2956
      3 N           4.5274   -1.0388    0.0000 N.ar    1  UNL1       -0.3538
      4 C           5.3364   -1.6266    0.0000 C.ar    1  UNL1        0.0545
      5 C           5.0274   -2.5776    0.0000 C.ar    1  UNL1        0.0086
      6 C           6.3518   -1.3943    0.0000 C.ar    1  UNL1        0.0223
      7 C           4.0274   -2.5776    0.0000 C.ar    1  UNL1        0.0074
      8 C           3.7183   -1.6266    0.0000 C.ar    1  UNL1        0.0475
      9 C           6.6498   -0.4398    0.0000 C.3     1  UNL1       -0.0038
     10 C           7.0547   -2.1630    0.0000 C.ar    1  UNL1        0.1325
     11 C           5.7123   -3.3624    0.0000 C.ar    1  UNL1       -0.0383
     12 C           6.7328   -3.1536    0.0000 C.ar    1  UNL1        0.0565
     13 C           7.6255   -0.2205    0.0000 C.2     1  UNL1       -0.0805
     14 C           7.9235    0.7340    0.0000 C.2     1  UNL1       -0.0759
     15 C           3.3424   -3.3624    0.0000 C.ar    1  UNL1       -0.0520
     16 C           7.2458    1.4694    0.0000 C.3     1  UNL1       -0.0286
     17 C           2.7029   -1.3943    0.0000 C.ar    1  UNL1       -0.0378
     18 C           7.5438    2.4240    0.0000 C.3     1  UNL1       -0.0308
     19 C           2.3219   -3.1536    0.0000 C.ar    1  UNL1       -0.0611
     20 C           2.0000   -2.1630    0.0000 C.ar    1  UNL1       -0.0598
     21 C           8.8991    0.9532    0.0000 C.3     1  UNL1       -0.0438
     22 C           7.3991   -3.8994    0.0000 C.2     1  UNL1        0.1537
     23 C           6.8661    3.1593    0.0000 C.2     1  UNL1       -0.0850
     24 C           7.1641    4.1139    0.0000 C.2     1  UNL1       -0.0796
     25 C           6.4864    4.8492    0.0000 C.3     1  UNL1       -0.0440
     26 C           8.1398    4.3331    0.0000 C.3     1  UNL1       -0.0440
     27 H           6.6210    0.1796    0.0000 H       1  UNL1        0.0357
     28 H           6.0349   -0.3606    0.0000 H       1  UNL1        0.0357
     29 H           4.5274   -0.4188    0.0000 H       1  UNL1        0.1659
     30 H           5.5139   -3.9498    0.0000 H       1  UNL1        0.0632
     31 H           8.0456   -0.6765    0.0000 H       1  UNL1        0.0575
     32 H           3.5408   -3.9498    0.0000 H       1  UNL1        0.0624
     33 H           6.6950    1.7541    0.0000 H       1  UNL1        0.0313
     34 H           6.8698    0.9764    0.0000 H       1  UNL1        0.0313
     35 H           2.5182   -0.8025    0.0000 H       1  UNL1        0.0638
     36 H           8.0945    2.1392    0.0000 H       1  UNL1        0.0310
     37 H           7.9198    2.9169    0.0000 H       1  UNL1        0.0310
     38 H           1.9088   -3.6160    0.0000 H       1  UNL1        0.0618
     39 H           1.3940   -2.0318    0.0000 H       1  UNL1        0.0618
     40 H           9.0350    0.3483    0.0000 H       1  UNL1        0.0274
     41 H           9.5041    1.0891    0.0000 H       1  UNL1        0.0274
     42 H           8.7632    1.5582    0.0000 H       1  UNL1        0.0274
     43 H           8.0060   -3.7728    0.0000 H       1  UNL1        0.1083
     44 H           6.2612    3.0234    0.0000 H       1  UNL1        0.0572
     45 H           8.4487   -2.4105    0.0000 H       1  UNL1        0.2922
     46 H           8.2757    3.7282    0.0000 H       1  UNL1        0.0274
     47 H           8.7447    4.4690    0.0000 H       1  UNL1        0.0274
     48 H           6.9423    5.2694    0.0000 H       1  UNL1        0.0274
     49 H           6.0663    5.3052    0.0000 H       1  UNL1        0.0274
     50 H           6.0305    4.4291    0.0000 H       1  UNL1        0.0274
     51 H           8.0039    4.9380    0.0000 H       1  UNL1        0.0274
@<TRIPOS>BOND
     1     1    10    1
     2     1    45    1
     3     2    22    2
     4     3     4   ar
     5     3     8   ar
     6     3    29    1
     7     4     5   ar
     8     4     6   ar
     9     5     7   ar
    10     5    11   ar
    11     6     9    1
    12     6    10   ar
    13     7     8   ar
    14     7    15   ar
    15     8    17   ar
    16     9    13    1
    17     9    27    1
    18     9    28    1
    19    10    12   ar
    20    11    12   ar
    21    11    30    1
    22    12    22    1
    23    13    14    2
    24    13    31    1
    25    14    16    1
    26    14    21    1
    27    15    19   ar
    28    15    32    1
    29    16    18    1
    30    16    33    1
    31    16    34    1
    32    17    20   ar
    33    17    35    1
    34    18    23    1
    35    18    36    1
    36    18    37    1
    37    19    20   ar
    38    19    38    1
    39    20    39    1
    40    21    40    1
    41    21    41    1
    42    21    42    1
    43    22    43    1
    44    23    24    2
    45    23    44    1
    46    24    25    1
    47    24    26    1
    48    25    48    1
    49    25    49    1
    50    25    50    1
    51    26    46    1
    52    26    47    1
    53    26    51    1
