@<TRIPOS>MOLECULE
IMPHY009298
 77 81 0 0 0
SMALL
GASTEIGER

@<TRIPOS>ATOM
      1 O           6.1239    1.3188    0.0000 O.3     1  UNL1       -0.3860
      2 O           6.0010   -0.8503    0.0000 O.3     1  UNL1       -0.3459
      3 O          13.0875    2.9496    0.0000 O.3     1  UNL1       -0.4802
      4 O          11.8490    4.1603    0.0000 O.2     1  UNL1       -0.2504
      5 O           4.2690   -0.8503    0.0000 O.3     1  UNL1       -0.3405
      6 O           6.0010   -2.8503    0.0000 O.3     1  UNL1       -0.3841
      7 O           4.2690   -3.8503    0.0000 O.3     1  UNL1       -0.3864
      8 O           2.5369   -2.8503    0.0000 O.3     1  UNL1       -0.3865
      9 O           2.5369    0.1497    0.0000 O.3     1  UNL1       -0.3924
     10 C           8.3856    1.6197    0.0000 C.3     1  UNL1       -0.0229
     11 C           9.0980    0.9179    0.0000 C.3     1  UNL1       -0.0296
     12 C          10.1062    1.1795    0.0000 C.3     1  UNL1       -0.0249
     13 C          10.3760    2.1856    0.0000 C.3     1  UNL1       -0.0198
     14 C           7.2044   -0.2917    0.0000 C.3     1  UNL1       -0.0094
     15 C           8.1064    0.4716    0.0000 C.3     1  UNL1       -0.0415
     16 C           7.3928    1.5004    0.0000 C.3     1  UNL1       -0.0156
     17 C           8.6321    2.6318    0.0000 C.3     1  UNL1       -0.0467
     18 C           6.8671    0.6497    0.0000 C.3     1  UNL1        0.0927
     19 C           8.9934   -0.0766    0.0000 C.3     1  UNL1       -0.0489
     20 C           9.6340    2.9166    0.0000 C.3     1  UNL1       -0.0482
     21 C           8.1507   -0.6149    0.0000 C.3     1  UNL1       -0.0472
     22 C          11.4197    2.4823    0.0000 C.3     1  UNL1        0.0681
     23 C          10.8613    0.4004    0.0000 C.3     1  UNL1       -0.0470
     24 C          10.1932    0.1833    0.0000 C.3     1  UNL1       -0.0590
     25 C          12.1926    1.7209    0.0000 C.3     1  UNL1       -0.0372
     26 C          11.9115    0.6729    0.0000 C.3     1  UNL1       -0.0515
     27 C           6.0010    0.1497    0.0000 C.3     1  UNL1        0.0798
     28 C          11.1499    3.4452    0.0000 C.3     1  UNL1       -0.0491
     29 C          12.1187    3.1974    0.0000 C.2     1  UNL1        0.3110
     30 C           5.1350   -1.3503    0.0000 C.3     1  UNL1        0.1880
     31 C           5.1350   -2.3503    0.0000 C.3     1  UNL1        0.1341
     32 C           4.2690   -2.8503    0.0000 C.3     1  UNL1        0.1141
     33 C           3.4030   -1.3503    0.0000 C.3     1  UNL1        0.1130
     34 C           3.4030   -2.3503    0.0000 C.3     1  UNL1        0.1119
     35 C           2.5369   -0.8503    0.0000 C.3     1  UNL1        0.0730
     36 H           9.7035    0.3214    0.0000 H       1  UNL1        0.0311
     37 H          10.5867    3.0091    0.0000 H       1  UNL1        0.0317
     38 H           6.7576   -1.0148    0.0000 H       1  UNL1        0.0329
     39 H           8.3413   -0.1022    0.0000 H       1  UNL1        0.0274
     40 H           8.7246    0.5181    0.0000 H       1  UNL1        0.0274
     41 H           7.4576    2.1170    0.0000 H       1  UNL1        0.0299
     42 H           6.8060    1.7007    0.0000 H       1  UNL1        0.0299
     43 H           8.5671    3.2484    0.0000 H       1  UNL1        0.0271
     44 H           8.0135    2.6733    0.0000 H       1  UNL1        0.0271
     45 H           9.2026   -0.6602    0.0000 H       1  UNL1        0.0268
     46 H           9.6090   -0.0026    0.0000 H       1  UNL1        0.0268
     47 H          10.1383    3.2773    0.0000 H       1  UNL1        0.0269
     48 H           9.3649    3.4752    0.0000 H       1  UNL1        0.0269
     49 H           7.8248   -1.1424    0.0000 H       1  UNL1        0.0269
     50 H           8.5924   -1.0500    0.0000 H       1  UNL1        0.0269
     51 H          10.3488    0.0515    0.0000 H       1  UNL1        0.0271
     52 H          11.1174   -0.1642    0.0000 H       1  UNL1        0.0271
     53 H           9.5756    0.1294    0.0000 H       1  UNL1        0.0235
     54 H          10.2472   -0.4343    0.0000 H       1  UNL1        0.0235
     55 H          10.8109    0.2373    0.0000 H       1  UNL1        0.0235
     56 H          12.7551    1.4602    0.0000 H       1  UNL1        0.0276
     57 H          12.5457    2.2305    0.0000 H       1  UNL1        0.0276
     58 H          11.9623    0.0550    0.0000 H       1  UNL1        0.0266
     59 H          12.5290    0.6172    0.0000 H       1  UNL1        0.0266
     60 H           5.7890    0.7323    0.0000 H       1  UNL1        0.0589
     61 H           5.3905    0.0420    0.0000 H       1  UNL1        0.0589
     62 H          11.7469    3.6125    0.0000 H       1  UNL1        0.0240
     63 H          10.9827    4.0423    0.0000 H       1  UNL1        0.0240
     64 H          10.5529    3.2780    0.0000 H       1  UNL1        0.0240
     65 H           6.2528    1.9252    0.0000 H       1  UNL1        0.2103
     66 H           5.1350   -0.7303    0.0000 H       1  UNL1        0.0937
     67 H          13.5209    3.3929    0.0000 H       1  UNL1        0.2951
     68 H           5.1350   -2.9703    0.0000 H       1  UNL1        0.0671
     69 H           3.7320   -3.1603    0.0000 H       1  UNL1        0.0648
     70 H           3.4030   -0.7303    0.0000 H       1  UNL1        0.0647
     71 H           2.8660   -2.0403    0.0000 H       1  UNL1        0.0647
     72 H           6.5380   -2.5403    0.0000 H       1  UNL1        0.2101
     73 H           1.9264   -0.7427    0.0000 H       1  UNL1        0.0584
     74 H           2.3249   -1.4329    0.0000 H       1  UNL1        0.0584
     75 H           3.7320   -4.1603    0.0000 H       1  UNL1        0.2100
     76 H           2.0000   -2.5403    0.0000 H       1  UNL1        0.2100
     77 H           2.0000    0.4597    0.0000 H       1  UNL1        0.2095
@<TRIPOS>BOND
     1    18     1    1
     2     1    65    1
     3     2    27    1
     4    30     2    1
     5     3    29    1
     6     3    67    1
     7     4    29    2
     8     5    30    1
     9     5    33    1
    10    31     6    1
    11     6    72    1
    12    32     7    1
    13     7    75    1
    14    34     8    1
    15     8    76    1
    16     9    35    1
    17     9    77    1
    18    10    11    1
    19    10    15    1
    20    10    16    1
    21    10    17    1
    22    11    12    1
    23    11    19    1
    24    11    36    1
    25    12    13    1
    26    12    23    1
    27    12    24    1
    28    13    20    1
    29    13    22    1
    30    13    37    1
    31    14    15    1
    32    14    18    1
    33    14    21    1
    34    14    38    1
    35    15    39    1
    36    15    40    1
    37    16    18    1
    38    16    41    1
    39    16    42    1
    40    17    20    1
    41    17    43    1
    42    17    44    1
    43    18    27    1
    44    19    21    1
    45    19    45    1
    46    19    46    1
    47    20    47    1
    48    20    48    1
    49    21    49    1
    50    21    50    1
    51    22    25    1
    52    22    28    1
    53    22    29    1
    54    23    26    1
    55    23    51    1
    56    23    52    1
    57    24    53    1
    58    24    54    1
    59    24    55    1
    60    25    26    1
    61    25    56    1
    62    25    57    1
    63    26    58    1
    64    26    59    1
    65    27    60    1
    66    27    61    1
    67    28    62    1
    68    28    63    1
    69    28    64    1
    70    30    31    1
    71    30    66    1
    72    31    32    1
    73    31    68    1
    74    32    34    1
    75    32    69    1
    76    33    34    1
    77    33    35    1
    78    33    70    1
    79    34    71    1
    80    35    73    1
    81    35    74    1
