@<TRIPOS>MOLECULE
IMPHY012685
 43 47 0 0 0
SMALL
GASTEIGER

@<TRIPOS>ATOM
      1 O           7.3092    1.0737    0.0000 O.3     1  UNL1       -0.4520
      2 O           7.3092    2.6832    0.0000 O.3     1  UNL1       -0.4526
      3 O           7.3211   -0.1671    0.0000 O.3     1  UNL1       -0.4908
      4 O           7.3534   -2.2585    0.0000 O.3     1  UNL1       -0.5033
      5 N           2.8816    1.3998    0.0000 N.3     1  UNL1       -0.2978
      6 C           3.7209    0.8716    0.0000 C.3     1  UNL1        0.0403
      7 C           4.6309    1.3784    0.0000 C.ar    1  UNL1       -0.0152
      8 C           3.7129   -0.1700    0.0000 C.3     1  UNL1       -0.0072
      9 C           4.6309    2.3784    0.0000 C.ar    1  UNL1       -0.0372
     10 C           5.4969    0.8785    0.0000 C.ar    1  UNL1        0.0364
     11 C           2.9072    2.3912    0.0000 C.3     1  UNL1        0.0032
     12 C           3.7727    2.8754    0.0000 C.3     1  UNL1       -0.0144
     13 C           4.6149   -0.6908    0.0000 C.ar    1  UNL1       -0.0340
     14 C           5.5130   -0.1631    0.0000 C.ar    1  UNL1        0.0346
     15 C           6.3629    1.3784    0.0000 C.ar    1  UNL1        0.1743
     16 C           5.4969    2.8784    0.0000 C.ar    1  UNL1       -0.0126
     17 C           6.3629    2.3784    0.0000 C.ar    1  UNL1        0.1671
     18 C           2.0000    0.9278    0.0000 C.3     1  UNL1       -0.0122
     19 C           6.4649   -0.6837    0.0000 C.ar    1  UNL1        0.1693
     20 C           4.6066   -1.7758    0.0000 C.ar    1  UNL1       -0.0543
     21 C           6.4816   -1.7685    0.0000 C.ar    1  UNL1        0.1591
     22 C           5.5462   -2.3183    0.0000 C.ar    1  UNL1       -0.0162
     23 C           7.8928    1.8784    0.0000 C.3     1  UNL1        0.2333
     24 C           8.1966   -0.6503    0.0000 C.3     1  UNL1        0.0790
     25 H           3.1770    0.5740    0.0000 H       1  UNL1        0.0516
     26 H           3.1028   -0.0592    0.0000 H       1  UNL1        0.0332
     27 H           3.4993   -0.7521    0.0000 H       1  UNL1        0.0332
     28 H           2.7054    2.9775    0.0000 H       1  UNL1        0.0430
     29 H           2.2944    2.2968    0.0000 H       1  UNL1        0.0430
     30 H           4.1737    3.3482    0.0000 H       1  UNL1        0.0326
     31 H           3.3786    3.3541    0.0000 H       1  UNL1        0.0326
     32 H           5.4969    3.4984    0.0000 H       1  UNL1        0.0658
     33 H           1.7073    1.4744    0.0000 H       1  UNL1        0.0391
     34 H           1.4534    0.6351    0.0000 H       1  UNL1        0.0391
     35 H           2.2927    0.3812    0.0000 H       1  UNL1        0.0391
     36 H           4.0684   -2.0837    0.0000 H       1  UNL1        0.0622
     37 H           5.5486   -2.9383    0.0000 H       1  UNL1        0.0655
     38 H           8.3536    1.4637    0.0000 H       1  UNL1        0.1166
     39 H           8.3536    2.2932    0.0000 H       1  UNL1        0.1166
     40 H           7.3606   -2.8784    0.0000 H       1  UNL1        0.2923
     41 H           7.8970   -1.1931    0.0000 H       1  UNL1        0.0660
     42 H           8.7394   -0.9499    0.0000 H       1  UNL1        0.0660
     43 H           8.4962   -0.1075    0.0000 H       1  UNL1        0.0660
@<TRIPOS>BOND
     1     1    15    1
     2     1    23    1
     3     2    17    1
     4     2    23    1
     5     3    19    1
     6     3    24    1
     7     4    21    1
     8     4    40    1
     9     5     6    1
    10     5    11    1
    11     5    18    1
    12     6     7    1
    13     6     8    1
    14     6    25    1
    15     7     9   ar
    16     7    10   ar
    17     8    13    1
    18     8    26    1
    19     8    27    1
    20     9    12    1
    21     9    16   ar
    22    10    14    1
    23    10    15   ar
    24    11    12    1
    25    11    28    1
    26    11    29    1
    27    12    30    1
    28    12    31    1
    29    13    14   ar
    30    13    20   ar
    31    14    19   ar
    32    15    17   ar
    33    16    17   ar
    34    16    32    1
    35    18    33    1
    36    18    34    1
    37    18    35    1
    38    19    21   ar
    39    20    22   ar
    40    20    36    1
    41    21    22   ar
    42    22    37    1
    43    23    38    1
    44    23    39    1
    45    24    41    1
    46    24    42    1
    47    24    43    1
