@<TRIPOS>MOLECULE
IMPHY015369
 27 29 0 0 0
SMALL
GASTEIGER

@<TRIPOS>ATOM
      1 BR          5.6855    1.2923    0.0000 Br      1  UNL1       -0.0874
      2 O           2.5989    1.2923    0.0000 O.3     1  UNL1       -0.3912
      3 C           4.1422    1.0680    0.0000 C.3     1  UNL1       -0.0018
      4 C           3.3060   -0.3804    0.0000 C.3     1  UNL1       -0.0141
      5 C           4.9784   -0.3804    0.0000 C.3     1  UNL1       -0.0277
      6 C           3.4511   -0.8155    0.0000 C.3     1  UNL1       -0.0401
      7 C           3.3060    0.5852    0.0000 C.3     1  UNL1        0.0619
      8 C           4.9784    0.5852    0.0000 C.3     1  UNL1        0.0229
      9 C           3.4511    0.2298    0.0000 C.3     1  UNL1       -0.0440
     10 C           4.1422   -0.6831    0.0000 C.3     1  UNL1       -0.0440
     11 C           2.4692   -0.8631    0.0000 C.3     1  UNL1       -0.0450
     12 C           4.3568   -1.2923    0.0000 C.3     1  UNL1       -0.0463
     13 H           4.1422    1.6880    0.0000 H       1  UNL1        0.0337
     14 H           3.8136   -0.0243    0.0000 H       1  UNL1        0.0326
     15 H           5.5708   -0.5631    0.0000 H       1  UNL1        0.0312
     16 H           3.3170   -1.4208    0.0000 H       1  UNL1        0.0301
     17 H           2.7332    0.3479    0.0000 H       1  UNL1        0.0599
     18 H           5.5512    0.3479    0.0000 H       1  UNL1        0.0424
     19 H           3.1075    0.7459    0.0000 H       1  UNL1        0.0272
     20 H           2.8577    0.0503    0.0000 H       1  UNL1        0.0272
     21 H           3.7722   -1.1807    0.0000 H       1  UNL1        0.0272
     22 H           4.5122   -1.1807    0.0000 H       1  UNL1        0.0272
     23 H           1.9880   -0.4722    0.0000 H       1  UNL1        0.0271
     24 H           2.2760   -1.4523    0.0000 H       1  UNL1        0.0271
     25 H           4.0474   -1.8296    0.0000 H       1  UNL1        0.0271
     26 H           4.8819   -1.6218    0.0000 H       1  UNL1        0.0271
     27 H           2.0000    1.1318    0.0000 H       1  UNL1        0.2098
@<TRIPOS>BOND
     1     1     8    1
     2     2     7    1
     3     2    27    1
     4     3     7    1
     5     3     8    1
     6     3     9    1
     7     3    13    1
     8     4     7    1
     9     4    10    1
    10     4    11    1
    11     4    14    1
    12     5     8    1
    13     5    10    1
    14     5    12    1
    15     5    15    1
    16     6     9    1
    17     6    11    1
    18     6    12    1
    19     6    16    1
    20     7    17    1
    21     8    18    1
    22     9    19    1
    23     9    20    1
    24    10    21    1
    25    10    22    1
    26    11    23    1
    27    11    24    1
    28    12    25    1
    29    12    26    1
