@<TRIPOS>MOLECULE
IMPHY011357
 47 46 0 0 0
SMALL
GASTEIGER

@<TRIPOS>ATOM
      1 O          10.6603    0.1940    0.0000 O.3     1  UNL1       -0.4544
      2 O          11.5263   -1.3060    0.0000 O.2     1  UNL1       -0.2511
      3 C           9.7942   -0.3060    0.0000 C.3     1  UNL1        0.1289
      4 C           8.9282   -0.8060    0.0000 C.3     1  UNL1       -0.0060
      5 C           8.0622   -0.3060    0.0000 C.3     1  UNL1       -0.0306
      6 C          10.2942   -1.1720    0.0000 C.3     1  UNL1       -0.0211
      7 C           7.1962   -0.8060    0.0000 C.2     1  UNL1       -0.0849
      8 C           6.3301   -0.3060    0.0000 C.2     1  UNL1       -0.0762
      9 C           9.2942    0.5600    0.0000 C.2     1  UNL1       -0.0483
     10 C           5.4641   -0.8060    0.0000 C.3     1  UNL1       -0.0286
     11 C           4.5981   -0.3060    0.0000 C.3     1  UNL1       -0.0308
     12 C           6.3301    0.6940    0.0000 C.3     1  UNL1       -0.0438
     13 C           3.7320   -0.8060    0.0000 C.2     1  UNL1       -0.0850
     14 C          11.5263   -0.3060    0.0000 C.2     1  UNL1        0.3048
     15 C           9.7942    1.4260    0.0000 C.2     1  UNL1       -0.0989
     16 C           2.8660   -0.3060    0.0000 C.2     1  UNL1       -0.0796
     17 C          12.3923    0.1940    0.0000 C.3     1  UNL1        0.0333
     18 C           2.0000   -0.8060    0.0000 C.3     1  UNL1       -0.0440
     19 C           2.8660    0.6940    0.0000 C.3     1  UNL1       -0.0440
     20 H           8.5297   -1.2810    0.0000 H       1  UNL1        0.0310
     21 H           9.3267   -1.2810    0.0000 H       1  UNL1        0.0310
     22 H           8.4607    0.1689    0.0000 H       1  UNL1        0.0309
     23 H           7.6636    0.1689    0.0000 H       1  UNL1        0.0309
     24 H           9.7573   -1.4820    0.0000 H       1  UNL1        0.0271
     25 H          10.6042   -1.7090    0.0000 H       1  UNL1        0.0271
     26 H          10.8312   -0.8621    0.0000 H       1  UNL1        0.0271
     27 H           7.1962   -1.4260    0.0000 H       1  UNL1        0.0572
     28 H           5.0656   -1.2810    0.0000 H       1  UNL1        0.0313
     29 H           5.8626   -1.2810    0.0000 H       1  UNL1        0.0313
     30 H           8.6742    0.5600    0.0000 H       1  UNL1        0.0605
     31 H           4.9966    0.1689    0.0000 H       1  UNL1        0.0310
     32 H           4.1996    0.1689    0.0000 H       1  UNL1        0.0310
     33 H           6.9501    0.6940    0.0000 H       1  UNL1        0.0274
     34 H           6.3301    1.3140    0.0000 H       1  UNL1        0.0274
     35 H           5.7101    0.6940    0.0000 H       1  UNL1        0.0274
     36 H           3.7320   -1.4260    0.0000 H       1  UNL1        0.0572
     37 H          10.4142    1.4260    0.0000 H       1  UNL1        0.0533
     38 H           9.4842    1.9630    0.0000 H       1  UNL1        0.0533
     39 H          12.7023   -0.3430    0.0000 H       1  UNL1        0.0342
     40 H          12.9292    0.5040    0.0000 H       1  UNL1        0.0342
     41 H          12.0823    0.7309    0.0000 H       1  UNL1        0.0342
     42 H           1.6900   -0.2691    0.0000 H       1  UNL1        0.0274
     43 H           1.4631   -1.1160    0.0000 H       1  UNL1        0.0274
     44 H           2.3100   -1.3430    0.0000 H       1  UNL1        0.0274
     45 H           3.4860    0.6940    0.0000 H       1  UNL1        0.0274
     46 H           2.8660    1.3140    0.0000 H       1  UNL1        0.0274
     47 H           2.2460    0.6940    0.0000 H       1  UNL1        0.0274
@<TRIPOS>BOND
     1     1     3    1
     2     1    14    1
     3     2    14    2
     4     3     4    1
     5     3     6    1
     6     3     9    1
     7     4     5    1
     8     4    20    1
     9     4    21    1
    10     5     7    1
    11     5    22    1
    12     5    23    1
    13     6    24    1
    14     6    25    1
    15     6    26    1
    16     7     8    2
    17     7    27    1
    18     8    10    1
    19     8    12    1
    20     9    15    2
    21     9    30    1
    22    10    11    1
    23    10    28    1
    24    10    29    1
    25    11    13    1
    26    11    31    1
    27    11    32    1
    28    12    33    1
    29    12    34    1
    30    12    35    1
    31    13    16    2
    32    13    36    1
    33    14    17    1
    34    15    37    1
    35    15    38    1
    36    16    18    1
    37    16    19    1
    38    17    39    1
    39    17    40    1
    40    17    41    1
    41    18    42    1
    42    18    43    1
    43    18    44    1
    44    19    45    1
    45    19    46    1
    46    19    47    1
