@<TRIPOS>MOLECULE
IMPHY001233
 18 18 0 0 0
SMALL
GASTEIGER

@<TRIPOS>ATOM
      1 O           5.1350   -0.8450    0.0000 O.2     1  UNL1       -0.4379
      2 O           6.8671    1.1550    0.0000 O.3     1  UNL1       -0.5006
      3 O           5.1350    2.1550    0.0000 O.2     1  UNL1       -0.2838
      4 O           6.8671   -1.8450    0.0000 O.3     1  UNL1       -0.4749
      5 O           2.5369   -0.3450    0.0000 O.3     1  UNL1       -0.4750
      6 O           7.7331   -0.3450    0.0000 O.2     1  UNL1       -0.2415
      7 O           3.4030   -1.8450    0.0000 O.2     1  UNL1       -0.2417
      8 C           6.0010   -0.3450    0.0000 C.ar    1  UNL1        0.2572
      9 C           6.0010    0.6550    0.0000 C.ar    1  UNL1        0.2141
     10 C           4.2690   -0.3450    0.0000 C.ar    1  UNL1        0.2160
     11 C           5.1350    1.1550    0.0000 C.ar    1  UNL1        0.2277
     12 C           4.2690    0.6550    0.0000 C.ar    1  UNL1        0.0383
     13 C           6.8671   -0.8450    0.0000 C.2     1  UNL1        0.3763
     14 C           3.4030   -0.8450    0.0000 C.2     1  UNL1        0.3726
     15 H           3.7320    0.9650    0.0000 H       1  UNL1        0.0696
     16 H           6.8671    1.7750    0.0000 H       1  UNL1        0.2924
     17 H           7.4040   -2.1550    0.0000 H       1  UNL1        0.2955
     18 H           2.0000   -0.6550    0.0000 H       1  UNL1        0.2955
@<TRIPOS>BOND
     1     1     8   ar
     2     1    10   ar
     3     2     9    1
     4     2    16    1
     5     3    11    2
     6     4    13    1
     7     4    17    1
     8     5    14    1
     9     5    18    1
    10     6    13    2
    11     7    14    2
    12     8     9   ar
    13     8    13    1
    14     9    11   ar
    15    10    12   ar
    16    10    14    1
    17    11    12   ar
    18    12    15    1
