@<TRIPOS>MOLECULE
IMPHY009639
 47 50 0 0 0
SMALL
GASTEIGER

@<TRIPOS>ATOM
      1 O           9.8984    0.6453    0.0000 O.3     1  UNL1       -0.4832
      2 O           6.3624    0.6731    0.0000 O.3     1  UNL1       -0.4897
      3 O           9.0005    3.2077    0.0000 O.3     1  UNL1       -0.3875
      4 O           8.1224   -2.3615    0.0000 O.3     1  UNL1       -0.5058
      5 O           6.3740   -2.3961    0.0000 O.2     1  UNL1       -0.2910
      6 O           3.7205    0.1110    0.0000 O.3     1  UNL1       -0.5064
      7 O           2.0000   -2.8957    0.0000 O.3     1  UNL1       -0.5066
      8 C           9.9065    1.6869    0.0000 C.3     1  UNL1        0.1310
      9 C           9.0044    2.2077    0.0000 C.3     1  UNL1        0.0984
     10 C           8.1063    1.6800    0.0000 C.3     1  UNL1        0.0091
     11 C           8.1224    0.6385    0.0000 C.ar    1  UNL1        0.0394
     12 C           8.9884    0.1385    0.0000 C.ar    1  UNL1        0.1316
     13 C           7.2564    0.1385    0.0000 C.ar    1  UNL1        0.1413
     14 C          10.4098    2.5510    0.0000 C.3     1  UNL1       -0.0227
     15 C          10.9065    1.6831    0.0000 C.3     1  UNL1       -0.0227
     16 C           7.2564   -0.8615    0.0000 C.ar    1  UNL1        0.1015
     17 C           5.4564   -0.8823    0.0000 C.3     1  UNL1        0.0847
     18 C           5.4564    0.1593    0.0000 C.3     1  UNL1        0.1036
     19 C           6.3624   -1.3962    0.0000 C.2     1  UNL1        0.1809
     20 C           8.9884   -0.8615    0.0000 C.ar    1  UNL1        0.0228
     21 C           8.1224   -1.3615    0.0000 C.ar    1  UNL1        0.1344
     22 C           4.5923   -1.3857    0.0000 C.ar    1  UNL1        0.0081
     23 C           3.7243   -0.8890    0.0000 C.ar    1  UNL1        0.1243
     24 C           4.5961   -2.3857    0.0000 C.ar    1  UNL1       -0.0509
     25 C           2.8602   -1.3923    0.0000 C.ar    1  UNL1        0.0216
     26 C           3.7320   -2.8890    0.0000 C.ar    1  UNL1       -0.0197
     27 C           2.8641   -2.3923    0.0000 C.ar    1  UNL1        0.1203
     28 H           9.5407    2.5188    0.0000 H       1  UNL1        0.0636
     29 H           7.8883    2.2604    0.0000 H       1  UNL1        0.0342
     30 H           7.4972    1.5645    0.0000 H       1  UNL1        0.0342
     31 H          10.9041    1.0631    0.0000 H       1  UNL1        0.0269
     32 H          11.5264    1.6807    0.0000 H       1  UNL1        0.0269
     33 H          10.9455    2.2390    0.0000 H       1  UNL1        0.0269
     34 H          10.7219    3.0868    0.0000 H       1  UNL1        0.0269
     35 H           9.8740    2.8631    0.0000 H       1  UNL1        0.0269
     36 H          10.9088    2.3031    0.0000 H       1  UNL1        0.0269
     37 H           5.4600   -1.5023    0.0000 H       1  UNL1        0.0464
     38 H           5.2473    0.7430    0.0000 H       1  UNL1        0.0707
     39 H           4.8455    0.0532    0.0000 H       1  UNL1        0.0707
     40 H           9.5254   -1.1715    0.0000 H       1  UNL1        0.0691
     41 H           8.4624    3.5157    0.0000 H       1  UNL1        0.2100
     42 H           5.1343   -2.6936    0.0000 H       1  UNL1        0.0623
     43 H           8.6593   -2.6715    0.0000 H       1  UNL1        0.2922
     44 H           2.3221   -1.0844    0.0000 H       1  UNL1        0.0691
     45 H           3.7344   -3.5090    0.0000 H       1  UNL1        0.0654
     46 H           3.1824    0.4189    0.0000 H       1  UNL1        0.2921
     47 H           2.0024   -3.5157    0.0000 H       1  UNL1        0.2921
@<TRIPOS>BOND
     1     1     8    1
     2     1    12    1
     3     2    13    1
     4     2    18    1
     5     3     9    1
     6     3    41    1
     7     4    21    1
     8     4    43    1
     9     5    19    2
    10     6    23    1
    11     6    46    1
    12     7    27    1
    13     7    47    1
    14     8     9    1
    15     8    14    1
    16     8    15    1
    17     9    10    1
    18     9    28    1
    19    10    11    1
    20    10    29    1
    21    10    30    1
    22    11    12   ar
    23    11    13   ar
    24    12    20   ar
    25    13    16   ar
    26    14    33    1
    27    14    34    1
    28    14    35    1
    29    15    31    1
    30    15    32    1
    31    15    36    1
    32    16    19    1
    33    16    21   ar
    34    17    18    1
    35    17    19    1
    36    17    22    1
    37    17    37    1
    38    18    38    1
    39    18    39    1
    40    20    21   ar
    41    20    40    1
    42    22    23   ar
    43    22    24   ar
    44    23    25   ar
    45    24    26   ar
    46    24    42    1
    47    25    27   ar
    48    25    44    1
    49    26    27   ar
    50    26    45    1
