@<TRIPOS>MOLECULE
IMPHY001101
 50 49 0 0 0
SMALL
GASTEIGER

@<TRIPOS>ATOM
      1 O           2.5369   -2.2500    0.0000 O.3     1  UNL1       -0.4806
      2 O           3.4030   -3.7500    0.0000 O.2     1  UNL1       -0.2510
      3 C          11.1972    1.7500    0.0000 C.3     1  UNL1       -0.0496
      4 C          10.3312    2.2500    0.0000 C.3     1  UNL1       -0.0530
      5 C          11.1972    0.7500    0.0000 C.3     1  UNL1       -0.0348
      6 C          10.3312    3.2500    0.0000 C.3     1  UNL1       -0.0559
      7 C          12.0632    0.2500    0.0000 C.2     1  UNL1       -0.0876
      8 C           9.4651    3.7500    0.0000 C.3     1  UNL1       -0.0653
      9 C           6.0010   -2.2500    0.0000 C.3     1  UNL1       -0.0343
     10 C           5.1350   -2.7500    0.0000 C.3     1  UNL1       -0.0395
     11 C           8.5991   -2.7500    0.0000 C.3     1  UNL1       -0.0313
     12 C           9.4651   -2.2500    0.0000 C.3     1  UNL1       -0.0313
     13 C          12.0632   -0.7500    0.0000 C.2     1  UNL1       -0.0842
     14 C          11.1972   -1.2500    0.0000 C.3     1  UNL1       -0.0165
     15 C           6.8671   -2.7500    0.0000 C.2     1  UNL1       -0.0879
     16 C           4.2690   -2.2500    0.0000 C.3     1  UNL1        0.0451
     17 C           7.7331   -2.2500    0.0000 C.2     1  UNL1       -0.0876
     18 C          10.3312   -2.7500    0.0000 C.2     1  UNL1       -0.0874
     19 C          11.1972   -2.2500    0.0000 C.2     1  UNL1       -0.0842
     20 C           3.4030   -2.7500    0.0000 C.2     1  UNL1        0.3047
     21 H          11.8078    1.6423    0.0000 H       1  UNL1        0.0268
     22 H          11.4092    2.3326    0.0000 H       1  UNL1        0.0268
     23 H           9.7206    2.3577    0.0000 H       1  UNL1        0.0265
     24 H          10.1191    1.6674    0.0000 H       1  UNL1        0.0265
     25 H          10.5866    0.8577    0.0000 H       1  UNL1        0.0307
     26 H          10.9851    0.1674    0.0000 H       1  UNL1        0.0307
     27 H          10.9417    3.1423    0.0000 H       1  UNL1        0.0263
     28 H          10.5432    3.8326    0.0000 H       1  UNL1        0.0263
     29 H          12.6002    0.5600    0.0000 H       1  UNL1        0.0569
     30 H           6.3996   -1.7750    0.0000 H       1  UNL1        0.0307
     31 H           5.6025   -1.7750    0.0000 H       1  UNL1        0.0307
     32 H           4.7365   -3.2250    0.0000 H       1  UNL1        0.0273
     33 H           5.5335   -3.2250    0.0000 H       1  UNL1        0.0273
     34 H           9.7751    4.2869    0.0000 H       1  UNL1        0.0230
     35 H           8.9282    4.0600    0.0000 H       1  UNL1        0.0230
     36 H           9.1551    3.2131    0.0000 H       1  UNL1        0.0230
     37 H           8.2006   -3.2250    0.0000 H       1  UNL1        0.0310
     38 H           8.9976   -3.2250    0.0000 H       1  UNL1        0.0310
     39 H           9.8637   -1.7750    0.0000 H       1  UNL1        0.0310
     40 H           9.0666   -1.7750    0.0000 H       1  UNL1        0.0310
     41 H          12.6002   -1.0600    0.0000 H       1  UNL1        0.0572
     42 H          10.9851   -0.6674    0.0000 H       1  UNL1        0.0350
     43 H          10.5866   -1.3577    0.0000 H       1  UNL1        0.0350
     44 H           6.8671   -3.3700    0.0000 H       1  UNL1        0.0569
     45 H           4.6675   -1.7750    0.0000 H       1  UNL1        0.0378
     46 H           3.8705   -1.7750    0.0000 H       1  UNL1        0.0378
     47 H           7.7331   -1.6300    0.0000 H       1  UNL1        0.0569
     48 H          10.3312   -3.3700    0.0000 H       1  UNL1        0.0569
     49 H          11.7341   -2.5600    0.0000 H       1  UNL1        0.0572
     50 H           2.0000   -2.5600    0.0000 H       1  UNL1        0.2951
@<TRIPOS>BOND
     1     1    20    1
     2     1    50    1
     3     2    20    2
     4     3     4    1
     5     3     5    1
     6     3    21    1
     7     3    22    1
     8     4     6    1
     9     4    23    1
    10     4    24    1
    11     5     7    1
    12     5    25    1
    13     5    26    1
    14     6     8    1
    15     6    27    1
    16     6    28    1
    17     7    13    2
    18     7    29    1
    19     8    34    1
    20     8    35    1
    21     8    36    1
    22     9    10    1
    23     9    15    1
    24     9    30    1
    25     9    31    1
    26    10    16    1
    27    10    32    1
    28    10    33    1
    29    11    12    1
    30    11    17    1
    31    11    37    1
    32    11    38    1
    33    12    18    1
    34    12    39    1
    35    12    40    1
    36    13    14    1
    37    13    41    1
    38    14    19    1
    39    14    42    1
    40    14    43    1
    41    15    17    2
    42    15    44    1
    43    16    20    1
    44    16    45    1
    45    16    46    1
    46    17    47    1
    47    18    19    2
    48    18    48    1
    49    19    49    1
