@<TRIPOS>MOLECULE
IMPHY004537
 50 51 0 0 0
SMALL
GASTEIGER

@<TRIPOS>ATOM
      1 O           4.2690    5.6550    0.0000 O.3     1  UNL1       -0.4915
      2 O          10.3312   -4.8450    0.0000 O.3     1  UNL1       -0.4915
      3 O           7.7331    1.6550    0.0000 O.2     1  UNL1       -0.2927
      4 O           2.5369    4.6550    0.0000 O.3     1  UNL1       -0.5033
      5 O           8.5991   -5.8450    0.0000 O.3     1  UNL1       -0.5033
      6 C           6.0010    2.6550    0.0000 C.3     1  UNL1       -0.0206
      7 C           8.5991   -1.8450    0.0000 C.3     1  UNL1       -0.0241
      8 C           6.0010    1.6550    0.0000 C.3     1  UNL1        0.0138
      9 C           7.7331   -1.3450    0.0000 C.3     1  UNL1       -0.0304
     10 C           5.1350    3.1550    0.0000 C.ar    1  UNL1       -0.0433
     11 C           8.5991   -2.8450    0.0000 C.ar    1  UNL1       -0.0434
     12 C           6.8671    1.1550    0.0000 C.2     1  UNL1        0.1561
     13 C           7.7331   -0.3450    0.0000 C.2     1  UNL1       -0.0804
     14 C           5.1350    4.1550    0.0000 C.ar    1  UNL1       -0.0131
     15 C           9.4651   -3.3450    0.0000 C.ar    1  UNL1       -0.0131
     16 C           6.8671    0.1550    0.0000 C.2     1  UNL1       -0.0231
     17 C           4.2690    2.6550    0.0000 C.ar    1  UNL1       -0.0549
     18 C           7.7331   -3.3450    0.0000 C.ar    1  UNL1       -0.0549
     19 C           4.2690    4.6550    0.0000 C.ar    1  UNL1        0.1615
     20 C           9.4651   -4.3450    0.0000 C.ar    1  UNL1        0.1615
     21 C           3.4030    3.1550    0.0000 C.ar    1  UNL1       -0.0163
     22 C           7.7331   -4.3450    0.0000 C.ar    1  UNL1       -0.0163
     23 C           3.4030    4.1550    0.0000 C.ar    1  UNL1        0.1585
     24 C           8.5991   -4.8450    0.0000 C.ar    1  UNL1        0.1585
     25 C           5.1350    6.1550    0.0000 C.3     1  UNL1        0.0790
     26 C          11.1972   -4.3450    0.0000 C.3     1  UNL1        0.0790
     27 H           6.6116    2.5473    0.0000 H       1  UNL1        0.0317
     28 H           6.2131    3.2376    0.0000 H       1  UNL1        0.0317
     29 H           9.2097   -1.9527    0.0000 H       1  UNL1        0.0316
     30 H           8.8112   -1.2624    0.0000 H       1  UNL1        0.0316
     31 H           5.3905    1.7627    0.0000 H       1  UNL1        0.0348
     32 H           5.7890    1.0724    0.0000 H       1  UNL1        0.0348
     33 H           7.1225   -1.2373    0.0000 H       1  UNL1        0.0311
     34 H           7.5210   -1.9276    0.0000 H       1  UNL1        0.0311
     35 H           8.2700   -0.0350    0.0000 H       1  UNL1        0.0573
     36 H           5.6720    4.4650    0.0000 H       1  UNL1        0.0658
     37 H          10.0021   -3.0350    0.0000 H       1  UNL1        0.0658
     38 H           6.3301   -0.1550    0.0000 H       1  UNL1        0.0649
     39 H           4.2690    2.0350    0.0000 H       1  UNL1        0.0621
     40 H           7.1962   -3.0350    0.0000 H       1  UNL1        0.0621
     41 H           2.8660    2.8450    0.0000 H       1  UNL1        0.0655
     42 H           7.1962   -4.6550    0.0000 H       1  UNL1        0.0655
     43 H           2.0000    4.3450    0.0000 H       1  UNL1        0.2923
     44 H           8.0622   -6.1550    0.0000 H       1  UNL1        0.2923
     45 H           5.4450    5.6181    0.0000 H       1  UNL1        0.0660
     46 H           5.6720    6.4650    0.0000 H       1  UNL1        0.0660
     47 H           4.8250    6.6919    0.0000 H       1  UNL1        0.0660
     48 H          11.5072   -4.8819    0.0000 H       1  UNL1        0.0660
     49 H          11.7341   -4.0350    0.0000 H       1  UNL1        0.0660
     50 H          10.8872   -3.8081    0.0000 H       1  UNL1        0.0660
@<TRIPOS>BOND
     1     1    19    1
     2     1    25    1
     3     2    20    1
     4     2    26    1
     5     3    12    2
     6     4    23    1
     7     4    43    1
     8     5    24    1
     9     5    44    1
    10     6     8    1
    11     6    10    1
    12     6    27    1
    13     6    28    1
    14     7     9    1
    15     7    11    1
    16     7    29    1
    17     7    30    1
    18     8    12    1
    19     8    31    1
    20     8    32    1
    21     9    13    1
    22     9    33    1
    23     9    34    1
    24    10    14   ar
    25    10    17   ar
    26    11    15   ar
    27    11    18   ar
    28    12    16    1
    29    13    16    2
    30    13    35    1
    31    14    19   ar
    32    14    36    1
    33    15    20   ar
    34    15    37    1
    35    16    38    1
    36    17    21   ar
    37    17    39    1
    38    18    22   ar
    39    18    40    1
    40    19    23   ar
    41    20    24   ar
    42    21    23   ar
    43    21    41    1
    44    22    24   ar
    45    22    42    1
    46    25    45    1
    47    25    46    1
    48    25    47    1
    49    26    48    1
    50    26    49    1
    51    26    50    1
