@<TRIPOS>MOLECULE
IMPHY013268
 37 39 0 0 0
SMALL
GASTEIGER

@<TRIPOS>ATOM
      1 O           6.0682   -2.7379    0.0000 O.2     1  UNL1       -0.4220
      2 O           2.5381   -2.7621    0.0000 O.3     1  UNL1       -0.4913
      3 O           2.5381   -0.7138    0.0000 O.3     1  UNL1       -0.5033
      4 O           6.0682    3.2621    0.0000 O.3     1  UNL1       -0.4915
      5 O           7.8003    2.2621    0.0000 O.3     1  UNL1       -0.5033
      6 O           7.8003   -2.7379    0.0000 O.2     1  UNL1       -0.2452
      7 C           5.2022   -1.2379    0.0000 C.ar    1  UNL1        0.0290
      8 C           6.0682   -0.7379    0.0000 C.ar    1  UNL1       -0.0002
      9 C           6.0682    0.2621    0.0000 C.ar    1  UNL1       -0.0133
     10 C           5.2022   -2.2379    0.0000 C.ar    1  UNL1        0.1433
     11 C           4.3083   -0.7033    0.0000 C.ar    1  UNL1       -0.0053
     12 C           6.9343   -1.2379    0.0000 C.ar    1  UNL1        0.0313
     13 C           4.3083   -2.7726    0.0000 C.ar    1  UNL1        0.0267
     14 C           3.4022   -1.2171    0.0000 C.ar    1  UNL1        0.1593
     15 C           6.9343    0.7621    0.0000 C.ar    1  UNL1       -0.0088
     16 C           3.4022   -2.2587    0.0000 C.ar    1  UNL1        0.1648
     17 C           5.2022    0.7621    0.0000 C.ar    1  UNL1       -0.0503
     18 C           6.9343   -2.2379    0.0000 C.ar    1  UNL1        0.3378
     19 C           6.9343    1.7621    0.0000 C.ar    1  UNL1        0.1590
     20 C           5.2022    1.7621    0.0000 C.ar    1  UNL1       -0.0157
     21 C           6.0682    2.2621    0.0000 C.ar    1  UNL1        0.1613
     22 C           2.5420   -3.7621    0.0000 C.3     1  UNL1        0.0790
     23 C           5.2022    3.7621    0.0000 C.3     1  UNL1        0.0790
     24 H           4.3154   -0.0833    0.0000 H       1  UNL1        0.0662
     25 H           7.4712   -0.9279    0.0000 H       1  UNL1        0.0695
     26 H           4.3154   -3.3926    0.0000 H       1  UNL1        0.0692
     27 H           7.4712    0.4521    0.0000 H       1  UNL1        0.0661
     28 H           4.6653    0.4521    0.0000 H       1  UNL1        0.0625
     29 H           4.6653    2.0721    0.0000 H       1  UNL1        0.0655
     30 H           2.0000   -1.0217    0.0000 H       1  UNL1        0.2923
     31 H           8.3372    1.9521    0.0000 H       1  UNL1        0.2923
     32 H           1.9220   -3.7645    0.0000 H       1  UNL1        0.0660
     33 H           2.5444   -4.3821    0.0000 H       1  UNL1        0.0660
     34 H           3.1620   -3.7597    0.0000 H       1  UNL1        0.0660
     35 H           5.5122    4.2990    0.0000 H       1  UNL1        0.0660
     36 H           4.6653    4.0721    0.0000 H       1  UNL1        0.0660
     37 H           4.8922    3.2251    0.0000 H       1  UNL1        0.0660
@<TRIPOS>BOND
     1     1    10   ar
     2     1    18   ar
     3     2    16    1
     4     2    22    1
     5     3    14    1
     6     3    30    1
     7     4    21    1
     8     4    23    1
     9     5    19    1
    10     5    31    1
    11     6    18    2
    12     7     8   ar
    13     7    10   ar
    14     7    11   ar
    15     8     9    1
    16     8    12   ar
    17     9    15   ar
    18     9    17   ar
    19    10    13   ar
    20    11    14   ar
    21    11    24    1
    22    12    18   ar
    23    12    25    1
    24    13    16   ar
    25    13    26    1
    26    14    16   ar
    27    15    19   ar
    28    15    27    1
    29    17    20   ar
    30    17    28    1
    31    19    21   ar
    32    20    21   ar
    33    20    29    1
    34    22    32    1
    35    22    33    1
    36    22    34    1
    37    23    35    1
    38    23    36    1
    39    23    37    1
