@<TRIPOS>MOLECULE
IMPHY008001
 51 54 0 0 0
SMALL
GASTEIGER

@<TRIPOS>ATOM
      1 O           9.9282   -0.3802    0.0000 O.3     1  UNL1       -0.3609
      2 O           8.1884    1.6131    0.0000 O.3     1  UNL1       -0.3862
      3 O           9.9166    2.6198    0.0000 O.3     1  UNL1       -0.3865
      4 O          11.6525    1.6265    0.0000 O.3     1  UNL1       -0.3865
      5 O          12.5243    0.1298    0.0000 O.3     1  UNL1       -0.3924
      6 O           9.0602   -1.9318    0.0000 O.3     1  UNL1       -0.4945
      7 O           7.2785    1.1269    0.0000 O.3     1  UNL1       -0.5054
      8 O           5.5301   -1.9077    0.0000 O.2     1  UNL1       -0.4542
      9 O           5.5301    1.0923    0.0000 O.2     1  UNL1       -0.2863
     10 O           2.0000    0.1165    0.0000 O.3     1  UNL1       -0.5033
     11 O           2.0000   -1.9318    0.0000 O.3     1  UNL1       -0.5032
     12 C           9.0564    1.1164    0.0000 C.3     1  UNL1        0.1139
     13 C           9.9205    1.6198    0.0000 C.3     1  UNL1        0.1121
     14 C           9.0602    0.1165    0.0000 C.3     1  UNL1        0.1193
     15 C          10.7884    1.1231    0.0000 C.3     1  UNL1        0.1117
     16 C          10.7923    0.1231    0.0000 C.3     1  UNL1        0.1108
     17 C           8.1962   -0.3869    0.0000 C.ar    1  UNL1        0.0676
     18 C          11.6602   -0.3735    0.0000 C.3     1  UNL1        0.0729
     19 C           7.2901    0.1270    0.0000 C.ar    1  UNL1        0.1404
     20 C           8.1962   -1.4285    0.0000 C.ar    1  UNL1        0.1328
     21 C           6.3961   -0.4077    0.0000 C.ar    1  UNL1        0.1064
     22 C           6.3961   -1.4077    0.0000 C.ar    1  UNL1        0.1463
     23 C           7.2901   -1.9424    0.0000 C.ar    1  UNL1        0.0237
     24 C           5.5301    0.0923    0.0000 C.ar    1  UNL1        0.2038
     25 C           4.6641   -0.4077    0.0000 C.ar    1  UNL1        0.0684
     26 C           4.6641   -1.4077    0.0000 C.ar    1  UNL1        0.1430
     27 C           3.7702    0.1270    0.0000 C.ar    1  UNL1       -0.0022
     28 C           9.0564   -2.9318    0.0000 C.3     1  UNL1        0.0788
     29 C           3.7702   -1.9424    0.0000 C.ar    1  UNL1        0.0265
     30 C           2.8641   -0.3869    0.0000 C.ar    1  UNL1        0.1591
     31 C           2.8641   -1.4285    0.0000 C.ar    1  UNL1        0.1618
     32 H           9.0540    1.7364    0.0000 H       1  UNL1        0.0649
     33 H           9.0635   -0.7335    0.0000 H       1  UNL1        0.0676
     34 H          10.4562    1.9318    0.0000 H       1  UNL1        0.0647
     35 H          11.3266    0.8152    0.0000 H       1  UNL1        0.0647
     36 H          10.7947   -0.4969    0.0000 H       1  UNL1        0.0646
     37 H          11.2635   -0.8500    0.0000 H       1  UNL1        0.0584
     38 H          12.0606   -0.8469    0.0000 H       1  UNL1        0.0584
     39 H           8.1861    2.2331    0.0000 H       1  UNL1        0.2100
     40 H          10.4524    2.9318    0.0000 H       1  UNL1        0.2100
     41 H          11.6501    2.2464    0.0000 H       1  UNL1        0.2100
     42 H           7.2829   -2.5623    0.0000 H       1  UNL1        0.0691
     43 H          13.0625   -0.1781    0.0000 H       1  UNL1        0.2095
     44 H           6.7380    1.4307    0.0000 H       1  UNL1        0.2922
     45 H           3.7773    0.7469    0.0000 H       1  UNL1        0.0663
     46 H           8.4364   -2.9294    0.0000 H       1  UNL1        0.0660
     47 H           9.0540   -3.5518    0.0000 H       1  UNL1        0.0660
     48 H           9.6764   -2.9342    0.0000 H       1  UNL1        0.0660
     49 H           3.7773   -2.5623    0.0000 H       1  UNL1        0.0692
     50 H           2.0024    0.7364    0.0000 H       1  UNL1        0.2923
     51 H           2.0024   -2.5518    0.0000 H       1  UNL1        0.2923
@<TRIPOS>BOND
     1     1    14    1
     2     1    16    1
     3    12     2    1
     4     2    39    1
     5    13     3    1
     6     3    40    1
     7    15     4    1
     8     4    41    1
     9     5    18    1
    10     5    43    1
    11     6    20    1
    12     6    28    1
    13     7    19    1
    14     7    44    1
    15     8    22   ar
    16     8    26   ar
    17     9    24    2
    18    10    30    1
    19    10    50    1
    20    11    31    1
    21    11    51    1
    22    12    13    1
    23    12    14    1
    24    12    32    1
    25    13    15    1
    26    13    34    1
    27    14    17    1
    28    14    33    1
    29    15    16    1
    30    15    35    1
    31    16    18    1
    32    16    36    1
    33    17    19   ar
    34    17    20   ar
    35    18    37    1
    36    18    38    1
    37    19    21   ar
    38    20    23   ar
    39    21    22   ar
    40    21    24   ar
    41    22    23   ar
    42    23    42    1
    43    24    25   ar
    44    25    26   ar
    45    25    27   ar
    46    26    29   ar
    47    27    30   ar
    48    27    45    1
    49    28    46    1
    50    28    47    1
    51    28    48    1
    52    29    31   ar
    53    29    49    1
    54    30    31   ar
