@<TRIPOS>MOLECULE
IMPHY016691
 41 41 0 0 0
SMALL
GASTEIGER

@<TRIPOS>ATOM
      1 O           2.1340    1.8170    0.0000 O.2     1  UNL1       -0.2954
      2 O           5.5981    1.8170    0.0000 O.2     1  UNL1       -0.2952
      3 O           3.8660   -1.1830    0.0000 O.2     1  UNL1       -0.2952
      4 O           6.4641    0.3170    0.0000 O.2     1  UNL1       -0.2959
      5 C           3.8660    1.8170    0.0000 C.3     1  UNL1        0.0834
      6 C           3.0000    0.3170    0.0000 C.3     1  UNL1        0.0834
      7 C           4.7320    0.3170    0.0000 C.3     1  UNL1        0.1357
      8 C           3.0000    1.3170    0.0000 C.2     1  UNL1        0.1587
      9 C           4.7320    1.3170    0.0000 C.2     1  UNL1        0.1634
     10 C           3.8660   -0.1830    0.0000 C.2     1  UNL1        0.1634
     11 C           5.5981   -0.1830    0.0000 C.2     1  UNL1        0.1535
     12 C           4.3660    2.6830    0.0000 C.3     1  UNL1       -0.0462
     13 C           3.3660    2.6830    0.0000 C.3     1  UNL1       -0.0462
     14 C           2.5000   -0.5490    0.0000 C.3     1  UNL1       -0.0462
     15 C           2.0000    0.3170    0.0000 C.3     1  UNL1       -0.0462
     16 C           5.5981   -1.1830    0.0000 C.3     1  UNL1        0.0156
     17 C           6.4641   -1.6830    0.0000 C.3     1  UNL1       -0.0466
     18 C           4.7320   -1.6830    0.0000 C.3     1  UNL1       -0.0557
     19 C           6.4641   -2.6830    0.0000 C.3     1  UNL1       -0.0646
     20 H           4.7320   -0.3030    0.0000 H       1  UNL1        0.0534
     21 H           4.9030    2.3730    0.0000 H       1  UNL1        0.0243
     22 H           4.6760    3.2200    0.0000 H       1  UNL1        0.0243
     23 H           3.8291    2.9930    0.0000 H       1  UNL1        0.0243
     24 H           3.9030    2.9930    0.0000 H       1  UNL1        0.0243
     25 H           3.0560    3.2200    0.0000 H       1  UNL1        0.0243
     26 H           2.8291    2.3730    0.0000 H       1  UNL1        0.0243
     27 H           1.9631   -0.2390    0.0000 H       1  UNL1        0.0243
     28 H           2.1900   -1.0860    0.0000 H       1  UNL1        0.0243
     29 H           3.0369   -0.8590    0.0000 H       1  UNL1        0.0243
     30 H           2.0000    0.9370    0.0000 H       1  UNL1        0.0243
     31 H           1.3800    0.3170    0.0000 H       1  UNL1        0.0243
     32 H           2.0000   -0.3030    0.0000 H       1  UNL1        0.0243
     33 H           5.5981   -1.8030    0.0000 H       1  UNL1        0.0375
     34 H           7.0747   -1.7907    0.0000 H       1  UNL1        0.0269
     35 H           6.6762   -1.1004    0.0000 H       1  UNL1        0.0269
     36 H           4.4220   -1.1461    0.0000 H       1  UNL1        0.0236
     37 H           4.1951   -1.9930    0.0000 H       1  UNL1        0.0236
     38 H           5.0420   -2.2200    0.0000 H       1  UNL1        0.0236
     39 H           5.8441   -2.6830    0.0000 H       1  UNL1        0.0230
     40 H           6.4641   -3.3030    0.0000 H       1  UNL1        0.0230
     41 H           7.0841   -2.6830    0.0000 H       1  UNL1        0.0230
@<TRIPOS>BOND
     1     1     8    2
     2     2     9    2
     3     3    10    2
     4     4    11    2
     5     5     8    1
     6     5     9    1
     7     5    12    1
     8     5    13    1
     9     6     8    1
    10     6    10    1
    11     6    14    1
    12     6    15    1
    13     7     9    1
    14     7    10    1
    15     7    11    1
    16     7    20    1
    17    11    16    1
    18    12    21    1
    19    12    22    1
    20    12    23    1
    21    13    24    1
    22    13    25    1
    23    13    26    1
    24    14    27    1
    25    14    28    1
    26    14    29    1
    27    15    30    1
    28    15    31    1
    29    15    32    1
    30    16    17    1
    31    16    18    1
    32    16    33    1
    33    17    19    1
    34    17    34    1
    35    17    35    1
    36    18    36    1
    37    18    37    1
    38    18    38    1
    39    19    39    1
    40    19    40    1
    41    19    41    1
