@<TRIPOS>MOLECULE
IMPHY007457
 75 76 0 0 0
SMALL
GASTEIGER

@<TRIPOS>ATOM
      1 O           5.5301   -3.0981    0.0000 O.3     1  UNL1       -0.4857
      2 O           2.0000   -1.0739    0.0000 O.3     1  UNL1       -0.5065
      3 C           6.3961   -2.5981    0.0000 C.3     1  UNL1        0.1082
      4 C           7.3962   -2.5981    0.0000 C.3     1  UNL1       -0.0132
      5 C           9.3962   -0.8660    0.0000 C.3     1  UNL1       -0.0439
      6 C           7.8962   -1.7320    0.0000 C.3     1  UNL1       -0.0492
      7 C           6.3961   -1.5981    0.0000 C.3     1  UNL1       -0.0091
      8 C           8.8962   -1.7320    0.0000 C.3     1  UNL1       -0.0503
      9 C          10.3962   -0.8660    0.0000 C.3     1  UNL1       -0.0505
     10 C          10.8962    0.0000    0.0000 C.3     1  UNL1       -0.0526
     11 C           5.5301   -1.0981    0.0000 C.3     1  UNL1       -0.0205
     12 C          12.3962    0.8660    0.0000 C.3     1  UNL1       -0.0439
     13 C          11.8962    0.0000    0.0000 C.3     1  UNL1       -0.0505
     14 C           6.8962   -3.4641    0.0000 C.3     1  UNL1       -0.0249
     15 C           4.6641   -1.5981    0.0000 C.ar    1  UNL1       -0.0021
     16 C          13.3962    0.8660    0.0000 C.3     1  UNL1       -0.0505
     17 C           8.8962   -0.0000    0.0000 C.3     1  UNL1       -0.0624
     18 C           4.6641   -2.5981    0.0000 C.ar    1  UNL1        0.1249
     19 C          13.8962    1.7320    0.0000 C.3     1  UNL1       -0.0526
     20 C          11.8962    1.7320    0.0000 C.3     1  UNL1       -0.0624
     21 C          14.8962    1.7320    0.0000 C.3     1  UNL1       -0.0507
     22 C           3.7702   -1.0634    0.0000 C.ar    1  UNL1       -0.0133
     23 C           3.7702   -3.1327    0.0000 C.ar    1  UNL1       -0.0133
     24 C          15.3962    2.5981    0.0000 C.3     1  UNL1       -0.0467
     25 C           2.8641   -2.6189    0.0000 C.ar    1  UNL1       -0.0056
     26 C           2.8641   -1.5773    0.0000 C.ar    1  UNL1        0.1202
     27 C          16.3962    2.5981    0.0000 C.3     1  UNL1       -0.0627
     28 C          14.8962    3.4641    0.0000 C.3     1  UNL1       -0.0627
     29 C           2.0000   -3.1222    0.0000 C.3     1  UNL1       -0.0361
     30 H           7.2885   -3.2087    0.0000 H       1  UNL1        0.0304
     31 H           7.9788   -2.8101    0.0000 H       1  UNL1        0.0304
     32 H           9.8212   -0.1299    0.0000 H       1  UNL1        0.0298
     33 H           8.0038   -1.1215    0.0000 H       1  UNL1        0.0267
     34 H           7.3135   -1.5200    0.0000 H       1  UNL1        0.0267
     35 H           7.0067   -1.7057    0.0000 H       1  UNL1        0.0307
     36 H           6.6082   -1.0155    0.0000 H       1  UNL1        0.0307
     37 H           8.7885   -2.3426    0.0000 H       1  UNL1        0.0268
     38 H           9.4788   -1.9441    0.0000 H       1  UNL1        0.0268
     39 H          10.2885   -1.4766    0.0000 H       1  UNL1        0.0268
     40 H          10.9788   -1.0781    0.0000 H       1  UNL1        0.0268
     41 H          11.0038    0.6106    0.0000 H       1  UNL1        0.0265
     42 H          10.3135    0.2121    0.0000 H       1  UNL1        0.0265
     43 H           5.9286   -0.6231    0.0000 H       1  UNL1        0.0316
     44 H           5.1316   -0.6231    0.0000 H       1  UNL1        0.0316
     45 H          12.8212    1.6022    0.0000 H       1  UNL1        0.0298
     46 H          11.7885   -0.6106    0.0000 H       1  UNL1        0.0268
     47 H          12.4788   -0.2121    0.0000 H       1  UNL1        0.0268
     48 H           6.3592   -3.7741    0.0000 H       1  UNL1        0.0268
     49 H           7.2062   -4.0010    0.0000 H       1  UNL1        0.0268
     50 H           7.4331   -3.1541    0.0000 H       1  UNL1        0.0268
     51 H          13.2885    0.2554    0.0000 H       1  UNL1        0.0268
     52 H          13.9788    0.6540    0.0000 H       1  UNL1        0.0268
     53 H           9.4331    0.3100    0.0000 H       1  UNL1        0.0232
     54 H           8.5862    0.5369    0.0000 H       1  UNL1        0.0232
     55 H           8.3592   -0.3100    0.0000 H       1  UNL1        0.0232
     56 H          14.0038    2.3426    0.0000 H       1  UNL1        0.0265
     57 H          13.3135    1.9441    0.0000 H       1  UNL1        0.0265
     58 H          12.4331    2.0420    0.0000 H       1  UNL1        0.0232
     59 H          11.5862    2.2690    0.0000 H       1  UNL1        0.0232
     60 H          11.3592    1.4220    0.0000 H       1  UNL1        0.0232
     61 H          14.7885    1.1215    0.0000 H       1  UNL1        0.0268
     62 H          15.4788    1.5200    0.0000 H       1  UNL1        0.0268
     63 H           3.7773   -0.4435    0.0000 H       1  UNL1        0.0658
     64 H           3.7773   -3.7527    0.0000 H       1  UNL1        0.0658
     65 H          15.7062    2.0611    0.0000 H       1  UNL1        0.0295
     66 H          16.3962    1.9781    0.0000 H       1  UNL1        0.0232
     67 H          17.0162    2.5981    0.0000 H       1  UNL1        0.0232
     68 H          16.3962    3.2181    0.0000 H       1  UNL1        0.0232
     69 H          15.4331    3.7741    0.0000 H       1  UNL1        0.0232
     70 H          14.5862    4.0010    0.0000 H       1  UNL1        0.0232
     71 H          14.3592    3.1541    0.0000 H       1  UNL1        0.0232
     72 H           1.6879   -2.5865    0.0000 H       1  UNL1        0.0279
     73 H           1.4643   -3.4343    0.0000 H       1  UNL1        0.0279
     74 H           2.3121   -3.6580    0.0000 H       1  UNL1        0.0279
     75 H           2.0024   -0.4539    0.0000 H       1  UNL1        0.2921
@<TRIPOS>BOND
     1     1     3    1
     2     1    18    1
     3     2    26    1
     4     2    75    1
     5     3     4    1
     6     3     7    1
     7     3    14    1
     8     4     6    1
     9     4    30    1
    10     4    31    1
    11     5     8    1
    12     5     9    1
    13     5    17    1
    14     5    32    1
    15     6     8    1
    16     6    33    1
    17     6    34    1
    18     7    11    1
    19     7    35    1
    20     7    36    1
    21     8    37    1
    22     8    38    1
    23     9    10    1
    24     9    39    1
    25     9    40    1
    26    10    13    1
    27    10    41    1
    28    10    42    1
    29    11    15    1
    30    11    43    1
    31    11    44    1
    32    12    13    1
    33    12    16    1
    34    12    20    1
    35    12    45    1
    36    13    46    1
    37    13    47    1
    38    14    48    1
    39    14    49    1
    40    14    50    1
    41    15    18   ar
    42    15    22   ar
    43    16    19    1
    44    16    51    1
    45    16    52    1
    46    17    53    1
    47    17    54    1
    48    17    55    1
    49    18    23   ar
    50    19    21    1
    51    19    56    1
    52    19    57    1
    53    20    58    1
    54    20    59    1
    55    20    60    1
    56    21    24    1
    57    21    61    1
    58    21    62    1
    59    22    26   ar
    60    22    63    1
    61    23    25   ar
    62    23    64    1
    63    24    27    1
    64    24    28    1
    65    24    65    1
    66    25    26   ar
    67    25    29    1
    68    27    66    1
    69    27    67    1
    70    27    68    1
    71    28    69    1
    72    28    70    1
    73    28    71    1
    74    29    72    1
    75    29    73    1
    76    29    74    1
