@<TRIPOS>MOLECULE
IMPHY013800
 27 27 0 0 0
SMALL
GASTEIGER

@<TRIPOS>ATOM
      1 O           2.8660   -2.6550    0.0000 O.3     1  UNL1       -0.4951
      2 N           3.7320    2.8450    0.0000 N.3     1  UNL1       -0.3272
      3 C           2.8660    1.3450    0.0000 C.3     1  UNL1       -0.0127
      4 C           3.7320    1.8450    0.0000 C.3     1  UNL1        0.0060
      5 C           2.8660    0.3450    0.0000 C.ar    1  UNL1       -0.0457
      6 C           4.5981    1.3450    0.0000 C.3     1  UNL1       -0.0496
      7 C           3.7320   -0.1550    0.0000 C.ar    1  UNL1       -0.0551
      8 C           2.0000   -0.1550    0.0000 C.ar    1  UNL1       -0.0551
      9 C           3.7320   -1.1550    0.0000 C.ar    1  UNL1       -0.0197
     10 C           2.0000   -1.1550    0.0000 C.ar    1  UNL1       -0.0197
     11 C           2.8660   -1.6550    0.0000 C.ar    1  UNL1        0.1201
     12 C           2.0000   -3.1550    0.0000 C.3     1  UNL1        0.0788
     13 H           2.6540    1.9276    0.0000 H       1  UNL1        0.0328
     14 H           2.2554    1.2373    0.0000 H       1  UNL1        0.0328
     15 H           4.2690    2.1550    0.0000 H       1  UNL1        0.0459
     16 H           4.2881    0.8081    0.0000 H       1  UNL1        0.0245
     17 H           5.1350    1.0350    0.0000 H       1  UNL1        0.0245
     18 H           4.9081    1.8819    0.0000 H       1  UNL1        0.0245
     19 H           4.2690    0.1550    0.0000 H       1  UNL1        0.0621
     20 H           1.4631    0.1550    0.0000 H       1  UNL1        0.0621
     21 H           4.2690    3.1550    0.0000 H       1  UNL1        0.1185
     22 H           3.1951    3.1550    0.0000 H       1  UNL1        0.1185
     23 H           4.2690   -1.4650    0.0000 H       1  UNL1        0.0654
     24 H           1.4631   -1.4650    0.0000 H       1  UNL1        0.0654
     25 H           1.6900   -2.6181    0.0000 H       1  UNL1        0.0660
     26 H           1.4631   -3.4650    0.0000 H       1  UNL1        0.0660
     27 H           2.3100   -3.6919    0.0000 H       1  UNL1        0.0660
@<TRIPOS>BOND
     1     1    11    1
     2     1    12    1
     3     2     4    1
     4     2    21    1
     5     2    22    1
     6     3     4    1
     7     3     5    1
     8     3    13    1
     9     3    14    1
    10     4     6    1
    11     4    15    1
    12     5     7   ar
    13     5     8   ar
    14     6    16    1
    15     6    17    1
    16     6    18    1
    17     7     9   ar
    18     7    19    1
    19     8    10   ar
    20     8    20    1
    21     9    11   ar
    22     9    23    1
    23    10    11   ar
    24    10    24    1
    25    12    25    1
    26    12    26    1
    27    12    27    1
