@<TRIPOS>MOLECULE
IMPHY014175
 36 38 0 0 0
SMALL
GASTEIGER

@<TRIPOS>ATOM
      1 O           4.7095    1.8211    0.0000 O.3     1  UNL1       -0.4179
      2 O           7.8003    0.8772    0.0000 O.3     1  UNL1       -0.4943
      3 O           2.5381    0.9014    0.0000 O.3     1  UNL1       -0.5031
      4 O           6.2737    2.6228    0.0000 O.2     1  UNL1       -0.2444
      5 C           5.2022   -0.6228    0.0000 C.ar    1  UNL1       -0.0094
      6 C           6.0682   -1.1228    0.0000 C.ar    1  UNL1       -0.0335
      7 C           5.2022    0.3772    0.0000 C.ar    1  UNL1        0.0460
      8 C           6.0682   -2.1228    0.0000 C.3     1  UNL1       -0.0208
      9 C           6.0682    0.8772    0.0000 C.ar    1  UNL1        0.1122
     10 C           4.3083    0.9119    0.0000 C.ar    1  UNL1        0.1819
     11 C           6.9343   -0.6228    0.0000 C.ar    1  UNL1       -0.0151
     12 C           6.9343    0.3772    0.0000 C.ar    1  UNL1        0.1351
     13 C           4.3083   -1.1575    0.0000 C.ar    1  UNL1       -0.0471
     14 C           3.4022   -0.6436    0.0000 C.ar    1  UNL1       -0.0047
     15 C           3.4022    0.3980    0.0000 C.ar    1  UNL1        0.1628
     16 C           6.9343   -2.6228    0.0000 C.3     1  UNL1       -0.0586
     17 C           5.2022   -2.6228    0.0000 C.3     1  UNL1       -0.0586
     18 C           5.7031    1.8015    0.0000 C.2     1  UNL1        0.3488
     19 C           2.5381   -1.1470    0.0000 C.3     1  UNL1       -0.0361
     20 C           8.6663    0.3772    0.0000 C.3     1  UNL1        0.0788
     21 H           6.0682   -2.7428    0.0000 H       1  UNL1        0.0344
     22 H           7.4712   -0.9328    0.0000 H       1  UNL1        0.0657
     23 H           4.3154   -1.7774    0.0000 H       1  UNL1        0.0627
     24 H           6.6243   -3.1597    0.0000 H       1  UNL1        0.0235
     25 H           7.4712   -2.9328    0.0000 H       1  UNL1        0.0235
     26 H           7.2443   -2.0859    0.0000 H       1  UNL1        0.0235
     27 H           4.8922   -2.0859    0.0000 H       1  UNL1        0.0235
     28 H           4.6653   -2.9328    0.0000 H       1  UNL1        0.0235
     29 H           5.5122   -3.1597    0.0000 H       1  UNL1        0.0235
     30 H           2.2261   -0.6112    0.0000 H       1  UNL1        0.0279
     31 H           2.0024   -1.4590    0.0000 H       1  UNL1        0.0279
     32 H           2.8502   -1.6827    0.0000 H       1  UNL1        0.0279
     33 H           2.0000    0.5934    0.0000 H       1  UNL1        0.2923
     34 H           8.3563   -0.1597    0.0000 H       1  UNL1        0.0660
     35 H           9.2033    0.0672    0.0000 H       1  UNL1        0.0660
     36 H           8.9763    0.9141    0.0000 H       1  UNL1        0.0660
@<TRIPOS>BOND
     1     1    10    1
     2     1    18    1
     3     2    12    1
     4     2    20    1
     5     3    15    1
     6     3    33    1
     7     4    18    2
     8     5     6   ar
     9     5     7   ar
    10     5    13   ar
    11     6     8    1
    12     6    11   ar
    13     7     9   ar
    14     7    10   ar
    15     8    16    1
    16     8    17    1
    17     8    21    1
    18     9    12   ar
    19     9    18    1
    20    10    15   ar
    21    11    12   ar
    22    11    22    1
    23    13    14   ar
    24    13    23    1
    25    14    15   ar
    26    14    19    1
    27    16    24    1
    28    16    25    1
    29    16    26    1
    30    17    27    1
    31    17    28    1
    32    17    29    1
    33    19    30    1
    34    19    31    1
    35    19    32    1
    36    20    34    1
    37    20    35    1
    38    20    36    1
