@<TRIPOS>MOLECULE
IMPHY002579
 43 47 0 0 0
SMALL
GASTEIGER

@<TRIPOS>ATOM
      1 O           7.2192   -0.1905    0.0000 O.3     1  UNL1       -0.4803
      2 O           7.4284    2.7813    0.0000 O.3     1  UNL1       -0.4881
      3 O           5.6964    1.7813    0.0000 O.3     1  UNL1       -0.3765
      4 O           3.9852   -1.9245    0.0000 O.3     1  UNL1       -0.4815
      5 O          10.9585    2.8054    0.0000 O.3     1  UNL1       -0.5066
      6 C           6.5624    1.2813    0.0000 C.3     1  UNL1        0.1689
      7 C           7.4284    0.7813    0.0000 C.3     1  UNL1        0.1645
      8 C           5.8254    0.6142    0.0000 C.ar    1  UNL1        0.0335
      9 C           6.5624    2.2813    0.0000 C.3     1  UNL1        0.1263
     10 C           6.2305   -0.2936    0.0000 C.ar    1  UNL1        0.1312
     11 C           8.2944    1.2813    0.0000 C.ar    1  UNL1        0.0378
     12 C           4.7972    0.7374    0.0000 C.ar    1  UNL1       -0.0415
     13 C           8.2944    2.2813    0.0000 C.ar    1  UNL1        0.1309
     14 C           4.1829   -0.0961    0.0000 C.ar    1  UNL1        0.0171
     15 C           5.6356   -1.1411    0.0000 C.ar    1  UNL1        0.0228
     16 C           4.6049   -1.0417    0.0000 C.ar    1  UNL1        0.1323
     17 C           2.9116   -1.8209    0.0000 C.3     1  UNL1        0.1235
     18 C           9.1884    0.7466    0.0000 C.ar    1  UNL1       -0.0480
     19 C           3.1120    0.0322    0.0000 C.2     1  UNL1       -0.0513
     20 C           9.1884    2.8160    0.0000 C.ar    1  UNL1        0.0219
     21 C           2.4721   -0.8360    0.0000 C.2     1  UNL1       -0.0409
     22 C          10.0944    1.2605    0.0000 C.ar    1  UNL1       -0.0196
     23 C          10.0944    2.3021    0.0000 C.ar    1  UNL1        0.1204
     24 C           2.0000   -2.2320    0.0000 C.3     1  UNL1       -0.0215
     25 C           2.8118   -2.8160    0.0000 C.3     1  UNL1       -0.0215
     26 H           7.9295    0.4162    0.0000 H       1  UNL1        0.0820
     27 H           6.3503    2.8639    0.0000 H       1  UNL1        0.0730
     28 H           5.9518    2.1736    0.0000 H       1  UNL1        0.0730
     29 H           4.5512    1.3065    0.0000 H       1  UNL1        0.0629
     30 H           5.8948   -1.7043    0.0000 H       1  UNL1        0.0691
     31 H           5.6964    2.4013    0.0000 H       1  UNL1        0.2109
     32 H           9.1812    0.1267    0.0000 H       1  UNL1        0.0624
     33 H           2.8659    0.6013    0.0000 H       1  UNL1        0.0623
     34 H           9.1812    3.4359    0.0000 H       1  UNL1        0.0691
     35 H           1.8557   -0.7693    0.0000 H       1  UNL1        0.0611
     36 H          10.6302    0.9484    0.0000 H       1  UNL1        0.0654
     37 H           2.1949   -2.7540    0.0000 H       1  UNL1        0.0271
     38 H           1.7452   -1.6668    0.0000 H       1  UNL1        0.0271
     39 H           1.4348   -2.4868    0.0000 H       1  UNL1        0.0271
     40 H           2.2548   -2.7972    0.0000 H       1  UNL1        0.0271
     41 H           2.7499   -3.4328    0.0000 H       1  UNL1        0.0271
     42 H           3.4287   -2.8778    0.0000 H       1  UNL1        0.0271
     43 H          11.4967    2.4975    0.0000 H       1  UNL1        0.2921
@<TRIPOS>BOND
     1     1     7    1
     2     1    10    1
     3     2     9    1
     4     2    13    1
     5     3     6    1
     6     3    31    1
     7     4    16    1
     8     4    17    1
     9     5    23    1
    10     5    43    1
    11     6     7    1
    12     6     8    1
    13     6     9    1
    14     7    11    1
    15     7    26    1
    16     8    10   ar
    17     8    12   ar
    18     9    27    1
    19     9    28    1
    20    10    15   ar
    21    11    13   ar
    22    11    18   ar
    23    12    14   ar
    24    12    29    1
    25    13    20   ar
    26    14    16   ar
    27    14    19    1
    28    15    16   ar
    29    15    30    1
    30    17    21    1
    31    17    24    1
    32    17    25    1
    33    18    22   ar
    34    18    32    1
    35    19    21    2
    36    19    33    1
    37    20    23   ar
    38    20    34    1
    39    21    35    1
    40    22    23   ar
    41    22    36    1
    42    24    38    1
    43    24    39    1
    44    24    40    1
    45    25    37    1
    46    25    41    1
    47    25    42    1
