@<TRIPOS>MOLECULE
IMPHY007940
 114 119 0 0 0
SMALL
GASTEIGER

@<TRIPOS>ATOM
      1 O           8.7087    1.7351    0.0000 O.3     1  UNL1       -0.3557
      2 O           8.1325   -0.1593    0.0000 O.3     1  UNL1       -0.4580
      3 O           6.9552   -0.9397    0.0000 O.3     1  UNL1       -0.4569
      4 O           6.1949    2.0112    0.0000 O.3     1  UNL1       -0.3820
      5 O           8.5876   -1.1330    0.0000 O.3     1  UNL1       -0.4573
      6 O           6.8971    2.2937    0.0000 O.3     1  UNL1       -0.4567
      7 O           5.5668   -1.1981    0.0000 O.3     1  UNL1       -0.4542
      8 O           4.4957    1.3305    0.0000 O.3     1  UNL1       -0.4502
      9 O           5.2562    0.2836    0.0000 O.3     1  UNL1       -0.4639
     10 O          10.9978   -0.8244    0.0000 O.3     1  UNL1       -0.4582
     11 O           9.1472    1.2444    0.0000 O.2     1  UNL1       -0.2512
     12 O           7.5776   -2.8404    0.0000 O.2     1  UNL1       -0.2512
     13 O           9.6125   -2.5293    0.0000 O.2     1  UNL1       -0.2512
     14 O           5.5168    3.3400    0.0000 O.2     1  UNL1       -0.2512
     15 O           5.0950   -2.8829    0.0000 O.2     1  UNL1       -0.2505
     16 O           3.1558    0.2330    0.0000 O.2     1  UNL1       -0.2449
     17 O           4.9824   -1.4267    0.0000 O.2     1  UNL1       -0.2512
     18 O          11.6959   -2.4288    0.0000 O.2     1  UNL1       -0.2449
     19 O           0.9743    4.2630    0.0000 O.2     1  UNL1       -0.2677
     20 N           8.3174   -3.0209    0.0000 N.ar    1  UNL1       -0.2588
     21 N           2.5947    3.6513    0.0000 N.ar    1  UNL1       -0.3175
     22 C           7.4838    1.6508    0.0000 C.3     1  UNL1        0.1549
     23 C           6.9994    0.7804    0.0000 C.3     1  UNL1        0.1207
     24 C           9.0445    0.6806    0.0000 C.3     1  UNL1        0.0715
     25 C           8.0605    0.8381    0.0000 C.3     1  UNL1        0.1446
     26 C           6.4204    1.0369    0.0000 C.3     1  UNL1        0.1367
     27 C           7.4832   -0.0905    0.0000 C.3     1  UNL1        0.1553
     28 C           9.8461    1.2726    0.0000 C.3     1  UNL1        0.1114
     29 C           8.4782   -0.1390    0.0000 C.3     1  UNL1        0.1496
     30 C           6.2930    1.4968    0.0000 C.3     1  UNL1        0.1584
     31 C           5.7349    0.0182    0.0000 C.3     1  UNL1        0.1742
     32 C           5.4313    0.9774    0.0000 C.3     1  UNL1        0.1802
     33 C           6.2436    0.1255    0.0000 C.3     1  UNL1        0.1080
     34 C           5.5291    1.4904    0.0000 C.3     1  UNL1       -0.0295
     35 C          10.6646    0.3574    0.0000 C.3     1  UNL1        0.1219
     36 C          10.4220    2.0902    0.0000 C.3     1  UNL1       -0.0321
     37 C           9.0451    0.2497    0.0000 C.2     1  UNL1        0.3043
     38 C           7.2664   -1.8901    0.0000 C.2     1  UNL1        0.3043
     39 C           9.5032   -1.5352    0.0000 C.2     1  UNL1        0.3043
     40 C           6.5090    3.2153    0.0000 C.2     1  UNL1        0.3043
     41 C           5.9501   -2.3645    0.0000 C.2     1  UNL1        0.3110
     42 C           3.5090    1.1686    0.0000 C.2     1  UNL1        0.3411
     43 C           4.6256   -0.4925    0.0000 C.2     1  UNL1        0.3040
     44 C           6.8070   -3.2440    0.0000 C.3     1  UNL1        0.0616
     45 C           9.8555   -0.3362    0.0000 C.3     1  UNL1        0.0332
     46 C          10.7778   -2.0324    0.0000 C.2     1  UNL1        0.3410
     47 C           6.4989   -2.7464    0.0000 C.3     1  UNL1        0.0332
     48 C          10.3093   -0.9434    0.0000 C.3     1  UNL1        0.0332
     49 C           7.1130    4.0122    0.0000 C.3     1  UNL1        0.0332
     50 C           7.9632   -3.6574    0.0000 C.3     1  UNL1        0.0119
     51 C           2.8753    1.9422    0.0000 C.ar    1  UNL1        0.0753
     52 C           3.6914   -0.8494    0.0000 C.3     1  UNL1        0.0332
     53 C          10.0494   -3.0209    0.0000 C.ar    1  UNL1        0.0805
     54 C           6.0673   -3.9168    0.0000 C.3     1  UNL1       -0.0517
     55 C           9.1834   -3.5209    0.0000 C.ar    1  UNL1        0.0588
     56 C           7.5943   -4.5869    0.0000 C.3     1  UNL1       -0.0562
     57 C           3.2284    2.8777    0.0000 C.ar    1  UNL1        0.0216
     58 C           1.8885    1.7802    0.0000 C.ar    1  UNL1       -0.0412
     59 C          10.0494   -2.0209    0.0000 C.ar    1  UNL1       -0.0446
     60 C           1.2548    2.5538    0.0000 C.ar    1  UNL1        0.0038
     61 C           9.1834   -1.5209    0.0000 C.ar    1  UNL1       -0.0428
     62 C           8.3174   -2.0209    0.0000 C.ar    1  UNL1        0.0279
     63 C           1.6079    3.4894    0.0000 C.ar    1  UNL1        0.2511
     64 C           2.9478    4.5869    0.0000 C.3     1  UNL1        0.0147
     65 H           9.8689    0.4735    0.0000 H       1  UNL1        0.0404
     66 H           7.5354    0.5084    0.0000 H       1  UNL1        0.0769
     67 H           7.7711   -0.6396    0.0000 H       1  UNL1        0.0781
     68 H           9.0793   -0.2909    0.0000 H       1  UNL1        0.0777
     69 H           5.8785    1.9578    0.0000 H       1  UNL1        0.0782
     70 H           5.0374   -0.4675    0.0000 H       1  UNL1        0.0803
     71 H           4.9812    0.5511    0.0000 H       1  UNL1        0.0811
     72 H           6.7467   -0.2368    0.0000 H       1  UNL1        0.0706
     73 H           6.0071   -0.4476    0.0000 H       1  UNL1        0.0706
     74 H           5.2480    0.9378    0.0000 H       1  UNL1        0.0259
     75 H           4.9766    1.7716    0.0000 H       1  UNL1        0.0259
     76 H           5.8103    2.0430    0.0000 H       1  UNL1        0.0259
     77 H          10.9450    0.9104    0.0000 H       1  UNL1        0.0727
     78 H          10.1212    0.0589    0.0000 H       1  UNL1        0.0727
     79 H           9.9151    2.4472    0.0000 H       1  UNL1        0.0259
     80 H          10.7790    2.5970    0.0000 H       1  UNL1        0.0259
     81 H          10.9289    1.7331    0.0000 H       1  UNL1        0.0259
     82 H           5.6019    2.1921    0.0000 H       1  UNL1        0.2104
     83 H           6.8318   -3.8635    0.0000 H       1  UNL1        0.0417
     84 H          10.2187    0.1662    0.0000 H       1  UNL1        0.0342
     85 H          10.3579   -0.6994    0.0000 H       1  UNL1        0.0342
     86 H           9.4923   -0.8387    0.0000 H       1  UNL1        0.0342
     87 H           6.9606   -3.1602    0.0000 H       1  UNL1        0.0342
     88 H           6.0851   -3.2081    0.0000 H       1  UNL1        0.0342
     89 H           6.0372   -2.3326    0.0000 H       1  UNL1        0.0342
     90 H           9.9424   -0.4436    0.0000 H       1  UNL1        0.0342
     91 H          10.8091   -0.5765    0.0000 H       1  UNL1        0.0342
     92 H          10.6762   -1.4432    0.0000 H       1  UNL1        0.0342
     93 H           6.6190    4.3868    0.0000 H       1  UNL1        0.0342
     94 H           7.4876    4.5063    0.0000 H       1  UNL1        0.0342
     95 H           7.6071    3.6377    0.0000 H       1  UNL1        0.0342
     96 H           8.3478   -4.1437    0.0000 H       1  UNL1        0.0369
     97 H           3.9126   -1.4286    0.0000 H       1  UNL1        0.0342
     98 H           3.1122   -1.0706    0.0000 H       1  UNL1        0.0342
     99 H           3.4702   -0.2702    0.0000 H       1  UNL1        0.0342
    100 H           6.4844   -4.3755    0.0000 H       1  UNL1        0.0238
    101 H           5.6086   -4.3340    0.0000 H       1  UNL1        0.0238
    102 H           5.6501   -3.4582    0.0000 H       1  UNL1        0.0238
    103 H           8.1706   -4.8156    0.0000 H       1  UNL1        0.0236
    104 H           7.3656   -5.1632    0.0000 H       1  UNL1        0.0236
    105 H           7.0180   -4.3582    0.0000 H       1  UNL1        0.0236
    106 H           3.8402    2.9782    0.0000 H       1  UNL1        0.0818
    107 H           1.6696    1.2001    0.0000 H       1  UNL1        0.0628
    108 H          10.5864   -1.7109    0.0000 H       1  UNL1        0.0627
    109 H           0.6430    2.4534    0.0000 H       1  UNL1        0.0672
    110 H           9.1834   -0.9009    0.0000 H       1  UNL1        0.0633
    111 H           7.7804   -1.7109    0.0000 H       1  UNL1        0.0829
    112 H           2.3678    4.8058    0.0000 H       1  UNL1        0.0457
    113 H           3.1668    5.1670    0.0000 H       1  UNL1        0.0457
    114 H           3.5279    4.3680    0.0000 H       1  UNL1        0.0457
@<TRIPOS>BOND
     1    22     1    1
     2     1    28    1
     3    25     2    1
     4     2    37    1
     5    27     3    1
     6     3    38    1
     7    26     4    1
     8     4    82    1
     9    29     5    1
    10     5    39    1
    11    30     6    1
    12     6    40    1
    13     7    31    1
    14     7    41    1
    15    32     8    1
    16     8    42    1
    17     9    33    1
    18     9    43    1
    19    10    35    1
    20    10    46    1
    21    11    37    2
    22    12    38    2
    23    13    39    2
    24    14    40    2
    25    15    41    2
    26    16    42    2
    27    17    43    2
    28    18    46    2
    29    19    63    2
    30    20    55   ar
    31    20    62   ar
    32    21    57   ar
    33    21    63   ar
    34    21    64    1
    35    22    23    1
    36    22    25    1
    37    22    26    1
    38    23    27    1
    39    23    30    1
    40    23    33    1
    41    24    25    1
    42    24    28    1
    43    24    29    1
    44    24    65    1
    45    25    66    1
    46    26    31    1
    47    26    34    1
    48    27    29    1
    49    27    67    1
    50    28    35    1
    51    28    36    1
    52    29    68    1
    53    30    32    1
    54    30    69    1
    55    31    32    1
    56    31    70    1
    57    32    71    1
    58    33    72    1
    59    33    73    1
    60    34    74    1
    61    34    75    1
    62    34    76    1
    63    35    77    1
    64    35    78    1
    65    36    79    1
    66    36    80    1
    67    36    81    1
    68    37    45    1
    69    38    47    1
    70    39    48    1
    71    40    49    1
    72    41    44    1
    73    42    51    1
    74    43    52    1
    75    44    50    1
    76    44    54    1
    77    44    83    1
    78    45    84    1
    79    45    85    1
    80    45    86    1
    81    46    53    1
    82    47    87    1
    83    47    88    1
    84    47    89    1
    85    48    90    1
    86    48    91    1
    87    48    92    1
    88    49    93    1
    89    49    94    1
    90    49    95    1
    91    50    55    1
    92    50    56    1
    93    50    96    1
    94    51    57   ar
    95    51    58   ar
    96    52    97    1
    97    52    98    1
    98    52    99    1
    99    53    55   ar
   100    53    59   ar
   101    54   100    1
   102    54   101    1
   103    54   102    1
   104    56   103    1
   105    56   104    1
   106    56   105    1
   107    57   106    1
   108    58    60   ar
   109    58   107    1
   110    59    61   ar
   111    59   108    1
   112    60    63   ar
   113    60   109    1
   114    61    62   ar
   115    61   110    1
   116    62   111    1
   117    64   112    1
   118    64   113    1
   119    64   114    1
