@<TRIPOS>MOLECULE
IMPHY014695
 29 29 0 0 0
SMALL
GASTEIGER

@<TRIPOS>ATOM
      1 O           2.6200    1.5000    0.0000 O.3     1  UNL1       -0.3880
      2 C           3.1200    0.6340    0.0000 C.3     1  UNL1        0.0721
      3 C           3.6200    1.5000    0.0000 C.3     1  UNL1       -0.0175
      4 C           2.2540    0.1340    0.0000 C.3     1  UNL1       -0.0198
      5 C           3.9860    0.1340    0.0000 C.3     1  UNL1       -0.0053
      6 C           2.2540   -0.8660    0.0000 C.3     1  UNL1       -0.0294
      7 C           3.1200   -1.3660    0.0000 C.2     1  UNL1       -0.0763
      8 C           3.9860   -0.8660    0.0000 C.2     1  UNL1       -0.0823
      9 C           4.6200    1.5000    0.0000 C.3     1  UNL1       -0.0600
     10 C           3.1200    2.3660    0.0000 C.3     1  UNL1       -0.0600
     11 C           3.1200   -2.3660    0.0000 C.3     1  UNL1       -0.0438
     12 H           3.9300    0.9631    0.0000 H       1  UNL1        0.0323
     13 H           2.0419    0.7166    0.0000 H       1  UNL1        0.0296
     14 H           1.6434    0.0263    0.0000 H       1  UNL1        0.0296
     15 H           4.5966    0.0263    0.0000 H       1  UNL1        0.0335
     16 H           4.1981    0.7166    0.0000 H       1  UNL1        0.0335
     17 H           1.6434   -0.7584    0.0000 H       1  UNL1        0.0311
     18 H           2.0419   -1.4486    0.0000 H       1  UNL1        0.0311
     19 H           4.5230   -1.1760    0.0000 H       1  UNL1        0.0572
     20 H           4.6200    0.8800    0.0000 H       1  UNL1        0.0233
     21 H           5.2400    1.5000    0.0000 H       1  UNL1        0.0233
     22 H           4.6200    2.1200    0.0000 H       1  UNL1        0.0233
     23 H           3.6569    2.6760    0.0000 H       1  UNL1        0.0233
     24 H           2.8100    2.9030    0.0000 H       1  UNL1        0.0233
     25 H           2.5831    2.0560    0.0000 H       1  UNL1        0.0233
     26 H           2.0000    1.5000    0.0000 H       1  UNL1        0.2102
     27 H           2.5000   -2.3660    0.0000 H       1  UNL1        0.0274
     28 H           3.1200   -2.9860    0.0000 H       1  UNL1        0.0274
     29 H           3.7400   -2.3660    0.0000 H       1  UNL1        0.0274
@<TRIPOS>BOND
     1     2     1    1
     2     1    26    1
     3     2     3    1
     4     2     4    1
     5     2     5    1
     6     3     9    1
     7     3    10    1
     8     3    12    1
     9     4     6    1
    10     4    13    1
    11     4    14    1
    12     5     8    1
    13     5    15    1
    14     5    16    1
    15     6     7    1
    16     6    17    1
    17     6    18    1
    18     7     8    2
    19     7    11    1
    20     8    19    1
    21     9    20    1
    22     9    21    1
    23     9    22    1
    24    10    23    1
    25    10    24    1
    26    10    25    1
    27    11    27    1
    28    11    28    1
    29    11    29    1
