@<TRIPOS>MOLECULE
IMPHY014005
 26 27 0 0 0
SMALL
GASTEIGER

@<TRIPOS>ATOM
      1 O           6.0682   -1.3170    0.0000 O.3     1  UNL1       -0.4850
      2 O           6.0682    1.6830    0.0000 O.2     1  UNL1       -0.2918
      3 O           2.5381   -1.3411    0.0000 O.3     1  UNL1       -0.5066
      4 C           6.9343   -0.8170    0.0000 C.3     1  UNL1        0.1121
      5 C           6.9343    0.1830    0.0000 C.3     1  UNL1        0.0499
      6 C           7.9343   -0.8170    0.0000 C.3     1  UNL1       -0.0248
      7 C           7.4343   -1.6830    0.0000 C.3     1  UNL1       -0.0248
      8 C           6.0682    0.6830    0.0000 C.2     1  UNL1        0.1704
      9 C           5.2022    0.1830    0.0000 C.ar    1  UNL1        0.0594
     10 C           5.2022   -0.8170    0.0000 C.ar    1  UNL1        0.1352
     11 C           4.3083    0.7177    0.0000 C.ar    1  UNL1       -0.0443
     12 C           4.3083   -1.3516    0.0000 C.ar    1  UNL1        0.0223
     13 C           3.4022   -0.8378    0.0000 C.ar    1  UNL1        0.1204
     14 C           3.4022    0.2038    0.0000 C.ar    1  UNL1       -0.0193
     15 H           7.5449    0.0754    0.0000 H       1  UNL1        0.0384
     16 H           7.1463    0.7656    0.0000 H       1  UNL1        0.0384
     17 H           7.9343   -1.4370    0.0000 H       1  UNL1        0.0268
     18 H           8.5543   -0.8170    0.0000 H       1  UNL1        0.0268
     19 H           7.9343   -0.1970    0.0000 H       1  UNL1        0.0268
     20 H           6.8973   -1.9930    0.0000 H       1  UNL1        0.0268
     21 H           7.7443   -2.2200    0.0000 H       1  UNL1        0.0268
     22 H           7.9712   -1.3730    0.0000 H       1  UNL1        0.0268
     23 H           4.3154    1.3376    0.0000 H       1  UNL1        0.0627
     24 H           4.3154   -1.9716    0.0000 H       1  UNL1        0.0691
     25 H           2.8665    0.5159    0.0000 H       1  UNL1        0.0654
     26 H           2.0000   -1.0332    0.0000 H       1  UNL1        0.2921
@<TRIPOS>BOND
     1     1     4    1
     2     1    10    1
     3     2     8    2
     4     3    13    1
     5     3    26    1
     6     4     5    1
     7     4     6    1
     8     4     7    1
     9     5     8    1
    10     5    15    1
    11     5    16    1
    12     6    17    1
    13     6    18    1
    14     6    19    1
    15     7    20    1
    16     7    21    1
    17     7    22    1
    18     8     9    1
    19     9    10   ar
    20     9    11   ar
    21    10    12   ar
    22    11    14   ar
    23    11    23    1
    24    12    13   ar
    25    12    24    1
    26    13    14   ar
    27    14    25    1
