@<TRIPOS>MOLECULE
IMPHY006775
 45 50 0 0 0
SMALL
GASTEIGER

@<TRIPOS>ATOM
      1 O           6.0110   -0.4760    0.0000 O.3     1  UNL1       -0.3704
      2 N           4.5103   -1.9861    0.0000 N.3     1  UNL1       -0.3012
      3 N           5.0981    2.1863    0.0000 N.2     1  UNL1       -0.2527
      4 C           3.7320    0.1475    0.0000 C.3     1  UNL1        0.0194
      5 C           4.5981    0.6475    0.0000 C.3     1  UNL1        0.0503
      6 C           3.7320   -0.8525    0.0000 C.3     1  UNL1       -0.0206
      7 C           4.5981   -1.3525    0.0000 C.3     1  UNL1        0.0019
      8 C           5.4641   -0.8525    0.0000 C.3     1  UNL1        0.0165
      9 C           5.4641    0.1475    0.0000 C.3     1  UNL1       -0.0212
     10 C           3.2272   -1.2454    0.0000 C.3     1  UNL1        0.0094
     11 C           4.6807   -0.5384    0.0000 C.3     1  UNL1       -0.0172
     12 C           5.4071    1.2353    0.0000 C.2     1  UNL1        0.0595
     13 C           5.3061    0.2411    0.0000 C.3     1  UNL1        0.0978
     14 C           5.6027   -1.3950    0.0000 C.3     1  UNL1        0.0530
     15 C           3.7891    1.2353    0.0000 C.ar    1  UNL1       -0.0094
     16 C           2.8660   -0.3525    0.0000 C.2     1  UNL1       -0.0823
     17 C           4.0981    2.1863    0.0000 C.ar    1  UNL1        0.0680
     18 C           4.6832   -2.9711    0.0000 C.3     1  UNL1       -0.0124
     19 C           2.7736    1.0030    0.0000 C.ar    1  UNL1       -0.0556
     20 C           2.0000    0.1475    0.0000 C.2     1  UNL1       -0.1020
     21 C           3.4131    2.9711    0.0000 C.ar    1  UNL1       -0.0360
     22 C           2.0707    1.7717    0.0000 C.ar    1  UNL1       -0.0613
     23 C           2.3926    2.7624    0.0000 C.ar    1  UNL1       -0.0597
     24 H           3.7320   -1.7025    0.0000 H       1  UNL1        0.0315
     25 H           5.1864   -1.9660    0.0000 H       1  UNL1        0.0341
     26 H           6.2626   -1.1438    0.0000 H       1  UNL1        0.0466
     27 H           6.0747    0.0398    0.0000 H       1  UNL1        0.0293
     28 H           5.6762    0.7301    0.0000 H       1  UNL1        0.0293
     29 H           2.6577   -1.0003    0.0000 H       1  UNL1        0.0435
     30 H           2.9492   -1.7996    0.0000 H       1  UNL1        0.0435
     31 H           4.6732   -1.1584    0.0000 H       1  UNL1        0.0297
     32 H           4.3270   -0.0292    0.0000 H       1  UNL1        0.0297
     33 H           6.0470    0.6577    0.0000 H       1  UNL1        0.0658
     34 H           5.4993   -2.0063    0.0000 H       1  UNL1        0.0563
     35 H           6.1963   -1.5739    0.0000 H       1  UNL1        0.0563
     36 H           2.8660   -0.9725    0.0000 H       1  UNL1        0.0573
     37 H           4.0726   -3.0783    0.0000 H       1  UNL1        0.0391
     38 H           4.7905   -3.5817    0.0000 H       1  UNL1        0.0391
     39 H           5.2939   -2.8638    0.0000 H       1  UNL1        0.0391
     40 H           2.5889    0.4112    0.0000 H       1  UNL1        0.0621
     41 H           2.0000    0.7675    0.0000 H       1  UNL1        0.0532
     42 H           1.4631   -0.1625    0.0000 H       1  UNL1        0.0532
     43 H           3.6115    3.5585    0.0000 H       1  UNL1        0.0639
     44 H           1.4648    1.6405    0.0000 H       1  UNL1        0.0618
     45 H           1.9795    3.2247    0.0000 H       1  UNL1        0.0618
@<TRIPOS>BOND
     1     1    13    1
     2     1    14    1
     3     2     8    1
     4     2    10    1
     5     2    18    1
     6     3    12    2
     7     3    17    1
     8     4     5    1
     9     4     6    1
    10     4    10    1
    11     4    16    1
    12     5     9    1
    13     5    12    1
    14     5    15    1
    15     6     7    1
    16     6    11    1
    17     6    24    1
    18     7     8    1
    19     7    14    1
    20     7    25    1
    21     8     9    1
    22     8    26    1
    23     9    27    1
    24     9    28    1
    25    10    29    1
    26    10    30    1
    27    11    13    1
    28    11    31    1
    29    11    32    1
    30    12    13    1
    31    13    33    1
    32    14    34    1
    33    14    35    1
    34    15    17   ar
    35    15    19   ar
    36    16    20    2
    37    16    36    1
    38    17    21   ar
    39    18    37    1
    40    18    38    1
    41    18    39    1
    42    19    22   ar
    43    19    40    1
    44    20    41    1
    45    20    42    1
    46    21    23   ar
    47    21    43    1
    48    22    23   ar
    49    22    44    1
    50    23    45    1
