@<TRIPOS>MOLECULE
IMPHY017264
 34 35 0 0 0
SMALL
GASTEIGER

@<TRIPOS>ATOM
      1 O           3.0570    0.9139    0.0000 O.2     1  UNL1       -0.3547
      2 N           3.3660    1.8649    0.0000 N.ar    1  UNL1       -0.0829
      3 C           3.0000   -1.1739    0.0000 C.3     1  UNL1       -0.0063
      4 C           3.0000   -2.1739    0.0000 C.3     1  UNL1       -0.0435
      5 C           3.8660   -0.6739    0.0000 C.2     1  UNL1        0.0022
      6 C           3.8660   -2.6739    0.0000 C.3     1  UNL1       -0.0486
      7 C           4.7320   -2.1739    0.0000 C.3     1  UNL1       -0.0313
      8 C           4.7320   -1.1739    0.0000 C.2     1  UNL1       -0.0654
      9 C           2.0000   -1.1739    0.0000 C.3     1  UNL1       -0.0557
     10 C           2.5000   -0.3079    0.0000 C.3     1  UNL1       -0.0557
     11 C           3.8660    0.3261    0.0000 C.ar    1  UNL1        0.1640
     12 C           5.5981   -0.6739    0.0000 C.3     1  UNL1       -0.0431
     13 C           4.6750    0.9139    0.0000 C.ar    1  UNL1        0.0077
     14 C           4.3660    1.8649    0.0000 C.ar    1  UNL1        0.0811
     15 C           4.9538    2.6739    0.0000 C.3     1  UNL1       -0.0191
     16 H           2.3894   -2.0663    0.0000 H       1  UNL1        0.0274
     17 H           2.7880   -2.7565    0.0000 H       1  UNL1        0.0274
     18 H           3.4675   -3.1489    0.0000 H       1  UNL1        0.0269
     19 H           4.2646   -3.1489    0.0000 H       1  UNL1        0.0269
     20 H           4.9441   -2.7565    0.0000 H       1  UNL1        0.0310
     21 H           5.3426   -2.0663    0.0000 H       1  UNL1        0.0310
     22 H           2.0000   -0.5539    0.0000 H       1  UNL1        0.0238
     23 H           1.3800   -1.1739    0.0000 H       1  UNL1        0.0238
     24 H           2.0000   -1.7939    0.0000 H       1  UNL1        0.0238
     25 H           3.0369    0.0021    0.0000 H       1  UNL1        0.0238
     26 H           2.1900    0.2290    0.0000 H       1  UNL1        0.0238
     27 H           1.9631   -0.6179    0.0000 H       1  UNL1        0.0238
     28 H           5.9081   -1.2109    0.0000 H       1  UNL1        0.0275
     29 H           6.1350   -0.3639    0.0000 H       1  UNL1        0.0275
     30 H           5.2881   -0.1370    0.0000 H       1  UNL1        0.0275
     31 H           5.2647    0.7223    0.0000 H       1  UNL1        0.0674
     32 H           5.4554    2.3095    0.0000 H       1  UNL1        0.0294
     33 H           5.3182    3.1755    0.0000 H       1  UNL1        0.0294
     34 H           4.4522    3.0384    0.0000 H       1  UNL1        0.0294
@<TRIPOS>BOND
     1     1     2   ar
     2     1    11   ar
     3     2    14   ar
     4     3     4    1
     5     3     5    1
     6     3     9    1
     7     3    10    1
     8     4     6    1
     9     4    16    1
    10     4    17    1
    11     5     8    2
    12     5    11    1
    13     6     7    1
    14     6    18    1
    15     6    19    1
    16     7     8    1
    17     7    20    1
    18     7    21    1
    19     8    12    1
    20     9    22    1
    21     9    23    1
    22     9    24    1
    23    10    25    1
    24    10    26    1
    25    10    27    1
    26    11    13   ar
    27    12    28    1
    28    12    29    1
    29    12    30    1
    30    13    14   ar
    31    13    31    1
    32    14    15    1
    33    15    32    1
    34    15    33    1
    35    15    34    1
