@<TRIPOS>MOLECULE
IMPHY016426
 18 17 0 0 0
SMALL
GASTEIGER

@<TRIPOS>ATOM
      1 C           2.8660    0.2500    0.0000 C.3     1  UNL1       -0.0433
      2 C           3.7320    0.7500    0.0000 C.3     1  UNL1       -0.0327
      3 C           2.0000    0.7500    0.0000 C.3     1  UNL1       -0.0624
      4 C           2.8660   -0.7500    0.0000 C.3     1  UNL1       -0.0624
      5 C           4.5981    0.2500    0.0000 C.2     1  UNL1       -0.0909
      6 C           5.4641    0.7500    0.0000 C.2     1  UNL1       -0.1026
      7 H           2.8660    0.8700    0.0000 H       1  UNL1        0.0298
      8 H           4.1306    1.2250    0.0000 H       1  UNL1        0.0310
      9 H           3.3335    1.2250    0.0000 H       1  UNL1        0.0310
     10 H           2.3100    1.2869    0.0000 H       1  UNL1        0.0232
     11 H           1.4631    1.0600    0.0000 H       1  UNL1        0.0232
     12 H           1.6900    0.2131    0.0000 H       1  UNL1        0.0232
     13 H           2.2460   -0.7500    0.0000 H       1  UNL1        0.0232
     14 H           2.8660   -1.3700    0.0000 H       1  UNL1        0.0232
     15 H           3.4860   -0.7500    0.0000 H       1  UNL1        0.0232
     16 H           4.5981   -0.3700    0.0000 H       1  UNL1        0.0566
     17 H           6.0010    0.4400    0.0000 H       1  UNL1        0.0532
     18 H           5.4641    1.3700    0.0000 H       1  UNL1        0.0532
@<TRIPOS>BOND
     1     1     2    1
     2     1     3    1
     3     1     4    1
     4     1     7    1
     5     2     5    1
     6     2     8    1
     7     2     9    1
     8     3    10    1
     9     3    11    1
    10     3    12    1
    11     4    13    1
    12     4    14    1
    13     4    15    1
    14     5     6    2
    15     5    16    1
    16     6    17    1
    17     6    18    1
