@<TRIPOS>MOLECULE
IMPHY015671
 19 18 0 0 0
SMALL
GASTEIGER

@<TRIPOS>ATOM
      1 S           4.5981   -0.2500    0.0000 S.3     1  UNL1       -0.0931
      2 S           5.4641    0.2500    0.0000 S.3     1  UNL1       -0.0934
      3 C           2.8660   -0.2500    0.0000 C.3     1  UNL1       -0.0461
      4 C           3.7320    0.2500    0.0000 C.3     1  UNL1        0.0037
      5 C           2.0000    0.2500    0.0000 C.3     1  UNL1       -0.0645
      6 C           6.3301   -0.2500    0.0000 C.3     1  UNL1        0.0011
      7 C           7.1962    0.2500    0.0000 C.3     1  UNL1       -0.0554
      8 H           2.4675   -0.7249    0.0000 H       1  UNL1        0.0271
      9 H           3.2646   -0.7249    0.0000 H       1  UNL1        0.0271
     10 H           4.1306    0.7249    0.0000 H       1  UNL1        0.0384
     11 H           3.3335    0.7249    0.0000 H       1  UNL1        0.0384
     12 H           2.3100    0.7869    0.0000 H       1  UNL1        0.0230
     13 H           1.4631    0.5600    0.0000 H       1  UNL1        0.0230
     14 H           1.6900   -0.2869    0.0000 H       1  UNL1        0.0230
     15 H           5.9316   -0.7249    0.0000 H       1  UNL1        0.0382
     16 H           6.7287   -0.7249    0.0000 H       1  UNL1        0.0382
     17 H           7.5062   -0.2869    0.0000 H       1  UNL1        0.0238
     18 H           7.7331    0.5600    0.0000 H       1  UNL1        0.0238
     19 H           6.8862    0.7869    0.0000 H       1  UNL1        0.0238
@<TRIPOS>BOND
     1     1     2    1
     2     1     4    1
     3     2     6    1
     4     3     4    1
     5     3     5    1
     6     3     8    1
     7     3     9    1
     8     4    10    1
     9     4    11    1
    10     5    12    1
    11     5    13    1
    12     5    14    1
    13     6     7    1
    14     6    15    1
    15     6    16    1
    16     7    17    1
    17     7    18    1
    18     7    19    1
