@<TRIPOS>MOLECULE
IMPHY000025
 42 44 0 0 0
SMALL
GASTEIGER

@<TRIPOS>ATOM
      1 O           5.1526    1.1015    0.0000 O.3     1  UNL1       -0.3672
      2 C           5.3958   -1.5787    0.0000 C.3     1  UNL1       -0.0090
      3 C           6.2249   -1.0195    0.0000 C.3     1  UNL1       -0.0327
      4 C           4.1748   -0.7131    0.0000 C.3     1  UNL1        0.0705
      5 C           3.9160    0.2529    0.0000 C.3     1  UNL1       -0.0120
      6 C           5.9492   -0.0583    0.0000 C.3     1  UNL1       -0.0442
      7 C           7.0066   -1.6336    0.0000 C.3     1  UNL1       -0.0407
      8 C           5.6723   -2.5336    0.0000 C.3     1  UNL1       -0.0471
      9 C           4.2866    1.6015    0.0000 C.3     1  UNL1        0.0675
     10 C           2.7759   -1.2219    0.0000 C.3     1  UNL1       -0.0234
     11 C           2.5171   -0.2560    0.0000 C.3     1  UNL1       -0.0450
     12 C           6.6658   -2.5674    0.0000 C.3     1  UNL1       -0.0498
     13 C           3.9159   -1.6790    0.0000 C.3     1  UNL1       -0.0355
     14 C           7.9684   -1.3596    0.0000 C.3     1  UNL1       -0.0622
     15 C           4.5454    2.5674    0.0000 C.3     1  UNL1       -0.0358
     16 C           3.5795    2.3086    0.0000 C.3     1  UNL1       -0.0358
     17 H           4.6912   -2.0540    0.0000 H       1  UNL1        0.0331
     18 H           6.9296   -0.5442    0.0000 H       1  UNL1        0.0307
     19 H           3.6960    1.0739    0.0000 H       1  UNL1        0.0328
     20 H           5.9543    0.5617    0.0000 H       1  UNL1        0.0272
     21 H           6.5636    0.0255    0.0000 H       1  UNL1        0.0272
     22 H           7.4289   -2.0876    0.0000 H       1  UNL1        0.0301
     23 H           5.7165   -3.1520    0.0000 H       1  UNL1        0.0269
     24 H           5.0620   -2.6425    0.0000 H       1  UNL1        0.0269
     25 H           2.9708   -1.8104    0.0000 H       1  UNL1        0.0293
     26 H           2.1819   -1.3997    0.0000 H       1  UNL1        0.0293
     27 H           1.9231   -0.4337    0.0000 H       1  UNL1        0.0270
     28 H           2.3221    0.3326    0.0000 H       1  UNL1        0.0270
     29 H           7.2674   -2.7176    0.0000 H       1  UNL1        0.0268
     30 H           6.5797   -3.1814    0.0000 H       1  UNL1        0.0268
     31 H           4.5148   -1.8395    0.0000 H       1  UNL1        0.0257
     32 H           3.7554   -2.2778    0.0000 H       1  UNL1        0.0257
     33 H           3.3171   -1.5185    0.0000 H       1  UNL1        0.0257
     34 H           7.7985   -0.7633    0.0000 H       1  UNL1        0.0233
     35 H           8.5647   -1.1898    0.0000 H       1  UNL1        0.0233
     36 H           8.1382   -1.9559    0.0000 H       1  UNL1        0.0233
     37 H           3.9465    2.7279    0.0000 H       1  UNL1        0.0257
     38 H           4.7059    3.1663    0.0000 H       1  UNL1        0.0257
     39 H           5.1443    2.4070    0.0000 H       1  UNL1        0.0257
     40 H           3.1411    1.8702    0.0000 H       1  UNL1        0.0257
     41 H           3.1411    2.7470    0.0000 H       1  UNL1        0.0257
     42 H           4.0179    2.7470    0.0000 H       1  UNL1        0.0257
@<TRIPOS>BOND
     1     1     4    1
     2     1     9    1
     3     2     3    1
     4     2     4    1
     5     2     8    1
     6     2    17    1
     7     3     6    1
     8     3     7    1
     9     3    18    1
    10     4    10    1
    11     4    13    1
    12     5     6    1
    13     5     9    1
    14     5    11    1
    15     5    19    1
    16     6    20    1
    17     6    21    1
    18     7    12    1
    19     7    14    1
    20     7    22    1
    21     8    12    1
    22     8    23    1
    23     8    24    1
    24     9    15    1
    25     9    16    1
    26    10    11    1
    27    10    25    1
    28    10    26    1
    29    11    27    1
    30    11    28    1
    31    12    29    1
    32    12    30    1
    33    13    31    1
    34    13    32    1
    35    13    33    1
    36    14    34    1
    37    14    35    1
    38    14    36    1
    39    15    37    1
    40    15    38    1
    41    15    39    1
    42    16    40    1
    43    16    41    1
    44    16    42    1
