@<TRIPOS>MOLECULE
IMPHY006022
 34 37 0 0 0
SMALL
GASTEIGER

@<TRIPOS>ATOM
      1 O           2.5836    0.6157    0.0000 O.3     1  UNL1       -0.4520
      2 O           2.5836    2.2252    0.0000 O.3     1  UNL1       -0.4526
      3 O           6.1541   -2.7304    0.0000 O.3     1  UNL1       -0.4945
      4 O           6.1279    3.4204    0.0000 O.3     1  UNL1       -0.4771
      5 O           6.9939    1.9204    0.0000 O.2     1  UNL1       -0.2451
      6 C           4.3958    0.4204    0.0000 C.ar    1  UNL1        0.0362
      7 C           5.2619    0.9204    0.0000 C.ar    1  UNL1        0.0004
      8 C           4.3798   -0.6211    0.0000 C.ar    1  UNL1       -0.0030
      9 C           3.5298    0.9204    0.0000 C.ar    1  UNL1        0.1745
     10 C           5.2778   -1.1488    0.0000 C.ar    1  UNL1        0.0245
     11 C           3.5298    1.9204    0.0000 C.ar    1  UNL1        0.1677
     12 C           5.2619    1.9204    0.0000 C.ar    1  UNL1        0.0702
     13 C           6.1719    0.4136    0.0000 C.ar    1  UNL1       -0.0524
     14 C           6.1799   -0.6280    0.0000 C.ar    1  UNL1       -0.0499
     15 C           4.3958    2.4204    0.0000 C.ar    1  UNL1       -0.0016
     16 C           3.4279   -1.1417    0.0000 C.ar    1  UNL1       -0.0531
     17 C           5.2862   -2.2338    0.0000 C.ar    1  UNL1        0.1278
     18 C           2.0000    1.4204    0.0000 C.3     1  UNL1        0.2333
     19 C           3.4111   -2.2266    0.0000 C.ar    1  UNL1       -0.0577
     20 C           4.3466   -2.7763    0.0000 C.ar    1  UNL1       -0.0193
     21 C           6.1279    2.4204    0.0000 C.2     1  UNL1        0.3375
     22 C           6.1580   -3.7304    0.0000 C.3     1  UNL1        0.0788
     23 H           6.7052    0.7298    0.0000 H       1  UNL1        0.0624
     24 H           6.7180   -0.9359    0.0000 H       1  UNL1        0.0625
     25 H           4.3958    3.0404    0.0000 H       1  UNL1        0.0664
     26 H           2.8970   -0.8214    0.0000 H       1  UNL1        0.0624
     27 H           1.5391    1.8352    0.0000 H       1  UNL1        0.1166
     28 H           1.5391    1.0057    0.0000 H       1  UNL1        0.1166
     29 H           2.8707   -2.5303    0.0000 H       1  UNL1        0.0619
     30 H           4.3442   -3.3963    0.0000 H       1  UNL1        0.0654
     31 H           5.5380   -3.7328    0.0000 H       1  UNL1        0.0660
     32 H           6.1604   -4.3504    0.0000 H       1  UNL1        0.0660
     33 H           6.7780   -3.7280    0.0000 H       1  UNL1        0.0660
     34 H           6.6648    3.7304    0.0000 H       1  UNL1        0.2954
@<TRIPOS>BOND
     1     1     9    1
     2     1    18    1
     3     2    11    1
     4     2    18    1
     5     3    17    1
     6     3    22    1
     7     4    21    1
     8     4    34    1
     9     5    21    2
    10     6     7   ar
    11     6     8   ar
    12     6     9   ar
    13     7    12   ar
    14     7    13   ar
    15     8    10   ar
    16     8    16   ar
    17     9    11   ar
    18    10    14   ar
    19    10    17   ar
    20    11    15   ar
    21    12    15   ar
    22    12    21    1
    23    13    14   ar
    24    13    23    1
    25    14    24    1
    26    15    25    1
    27    16    19   ar
    28    16    26    1
    29    17    20   ar
    30    18    27    1
    31    18    28    1
    32    19    20   ar
    33    19    29    1
    34    20    30    1
    35    22    31    1
    36    22    32    1
    37    22    33    1
