@<TRIPOS>MOLECULE
IMPHY006146
 22 22 0 0 0
SMALL
GASTEIGER

@<TRIPOS>ATOM
      1 O           2.8660   -2.0950    0.0000 O.3     1  UNL1       -0.5068
      2 C           2.8660    1.9050    0.0000 C.3     1  UNL1       -0.0215
      3 C           2.8660    0.9050    0.0000 C.ar    1  UNL1       -0.0446
      4 C           3.7320    2.4050    0.0000 C.3     1  UNL1       -0.0587
      5 C           2.0000    2.4050    0.0000 C.3     1  UNL1       -0.0587
      6 C           2.0000    0.4050    0.0000 C.ar    1  UNL1       -0.0549
      7 C           3.7320    0.4050    0.0000 C.ar    1  UNL1       -0.0549
      8 C           2.0000   -0.5950    0.0000 C.ar    1  UNL1       -0.0199
      9 C           3.7320   -0.5950    0.0000 C.ar    1  UNL1       -0.0199
     10 C           2.8660   -1.0950    0.0000 C.ar    1  UNL1        0.1169
     11 H           2.8660    2.5250    0.0000 H       1  UNL1        0.0343
     12 H           4.0420    1.8681    0.0000 H       1  UNL1        0.0235
     13 H           4.2690    2.7150    0.0000 H       1  UNL1        0.0235
     14 H           2.3100    2.9419    0.0000 H       1  UNL1        0.0235
     15 H           1.4631    2.7150    0.0000 H       1  UNL1        0.0235
     16 H           1.6900    1.8681    0.0000 H       1  UNL1        0.0235
     17 H           3.4220    2.9419    0.0000 H       1  UNL1        0.0235
     18 H           1.4631    0.7150    0.0000 H       1  UNL1        0.0622
     19 H           4.2690    0.7150    0.0000 H       1  UNL1        0.0622
     20 H           1.4631   -0.9050    0.0000 H       1  UNL1        0.0654
     21 H           4.2690   -0.9050    0.0000 H       1  UNL1        0.0654
     22 H           2.3291   -2.4050    0.0000 H       1  UNL1        0.2921
@<TRIPOS>BOND
     1     1    10    1
     2     1    22    1
     3     2     3    1
     4     2     4    1
     5     2     5    1
     6     2    11    1
     7     3     6   ar
     8     3     7   ar
     9     4    12    1
    10     4    13    1
    11     4    17    1
    12     5    14    1
    13     5    15    1
    14     5    16    1
    15     6     8   ar
    16     6    18    1
    17     7     9   ar
    18     7    19    1
    19     8    10   ar
    20     8    20    1
    21     9    10   ar
    22     9    21    1
