@<TRIPOS>MOLECULE
IMPHY001966
 253 259 0 0 0
SMALL
GASTEIGER

@<TRIPOS>ATOM
      1 O          18.9914    0.0950    0.0000 O.3     1  UNL1       -0.3401
      2 O          17.2594    0.0950    0.0000 O.3     1  UNL1       -0.3405
      3 O          13.7953   15.0950    0.0000 O.3     1  UNL1       -0.3378
      4 O           6.8671  -14.9050    0.0000 O.3     1  UNL1       -0.3378
      5 O          16.3933   15.5950    0.0000 O.3     1  UNL1       -0.3405
      6 O           5.1350  -12.9050    0.0000 O.3     1  UNL1       -0.3405
      7 O          18.9914    3.0950    0.0000 O.3     1  UNL1       -0.3431
      8 O          12.9292   16.5950    0.0000 O.3     1  UNL1       -0.3405
      9 O           6.0010  -16.4050    0.0000 O.3     1  UNL1       -0.3405
     10 O          15.5273   14.0950    0.0000 O.3     1  UNL1       -0.3384
     11 O           6.8671  -12.9050    0.0000 O.3     1  UNL1       -0.3384
     12 O          14.6613   -0.4050    0.0000 O.3     1  UNL1       -0.3451
     13 O          13.7953   17.0950    0.0000 O.3     1  UNL1       -0.3864
     14 O           5.1350  -15.9050    0.0000 O.3     1  UNL1       -0.3864
     15 O          18.9914   -1.9050    0.0000 O.3     1  UNL1       -0.3841
     16 O          15.5273   -1.9050    0.0000 O.3     1  UNL1       -0.3865
     17 O          17.2594   -2.9050    0.0000 O.3     1  UNL1       -0.3864
     18 O          17.2594    1.0950    0.0000 O.3     1  UNL1       -0.3866
     19 O          13.7953    1.0950    0.0000 O.3     1  UNL1       -0.3421
     20 O          15.5273   18.0950    0.0000 O.3     1  UNL1       -0.3865
     21 O           3.4030  -14.9050    0.0000 O.3     1  UNL1       -0.3865
     22 O          20.7235    1.0950    0.0000 O.3     1  UNL1       -0.3841
     23 O          20.7235    3.0950    0.0000 O.3     1  UNL1       -0.3444
     24 O          12.0632   14.0950    0.0000 O.3     1  UNL1       -0.3841
     25 O           8.5991  -15.9050    0.0000 O.3     1  UNL1       -0.3841
     26 O          10.3312   15.0950    0.0000 O.3     1  UNL1       -0.3864
     27 O           8.5991  -17.9050    0.0000 O.3     1  UNL1       -0.3864
     28 O          10.3312   17.0950    0.0000 O.3     1  UNL1       -0.3865
     29 O           6.8671  -18.9050    0.0000 O.3     1  UNL1       -0.3865
     30 O          12.9292   -1.4050    0.0000 O.3     1  UNL1       -0.4502
     31 O          11.1972   -0.4050    0.0000 O.3     1  UNL1       -0.3853
     32 O          17.2594   18.0950    0.0000 O.3     1  UNL1       -0.3924
     33 O           2.5369  -13.4050    0.0000 O.3     1  UNL1       -0.3924
     34 O          11.1972    1.5950    0.0000 O.3     1  UNL1       -0.3865
     35 O          11.1972   18.5950    0.0000 O.3     1  UNL1       -0.3924
     36 O           4.2690  -17.4050    0.0000 O.3     1  UNL1       -0.3924
     37 O          11.1972   -1.4050    0.0000 O.2     1  UNL1       -0.2453
     38 C          14.6613   15.5950    0.0000 C.3     1  UNL1        0.1406
     39 C           6.0010  -14.4050    0.0000 C.3     1  UNL1        0.1406
     40 C          18.9914    1.0950    0.0000 C.3     1  UNL1        0.1205
     41 C          18.1254   -0.4050    0.0000 C.3     1  UNL1        0.1884
     42 C          14.6613   16.5950    0.0000 C.3     1  UNL1        0.1144
     43 C           5.1350  -14.9050    0.0000 C.3     1  UNL1        0.1144
     44 C          16.3933   -0.4050    0.0000 C.3     1  UNL1        0.1134
     45 C          18.1254   -1.4050    0.0000 C.3     1  UNL1        0.1341
     46 C          16.3933   -1.4050    0.0000 C.3     1  UNL1        0.1119
     47 C          17.2594   -1.9050    0.0000 C.3     1  UNL1        0.1141
     48 C          18.1254    1.5950    0.0000 C.3     1  UNL1        0.1098
     49 C          15.5273   15.0950    0.0000 C.3     1  UNL1        0.1893
     50 C           6.0010  -13.4050    0.0000 C.3     1  UNL1        0.1893
     51 C          15.5273   17.0950    0.0000 C.3     1  UNL1        0.1119
     52 C           4.2690  -14.4050    0.0000 C.3     1  UNL1        0.1119
     53 C          19.8574    1.5950    0.0000 C.3     1  UNL1        0.1345
     54 C          16.3933   16.5950    0.0000 C.3     1  UNL1        0.1130
     55 C           4.2690  -13.4050    0.0000 C.3     1  UNL1        0.1130
     56 C          12.9292   15.5950    0.0000 C.3     1  UNL1        0.1885
     57 C           6.8671  -15.9050    0.0000 C.3     1  UNL1        0.1885
     58 C          18.1254    2.5950    0.0000 C.3     1  UNL1        0.0873
     59 C          12.0632   15.0950    0.0000 C.3     1  UNL1        0.1341
     60 C           7.7331  -16.4050    0.0000 C.3     1  UNL1        0.1341
     61 C          19.8574    2.5950    0.0000 C.3     1  UNL1        0.1882
     62 C          11.1972   15.5950    0.0000 C.3     1  UNL1        0.1141
     63 C           7.7331  -17.4050    0.0000 C.3     1  UNL1        0.1141
     64 C          11.1972   16.5950    0.0000 C.3     1  UNL1        0.1119
     65 C           6.8671  -17.9050    0.0000 C.3     1  UNL1        0.1119
     66 C          15.5273    0.0950    0.0000 C.3     1  UNL1        0.0796
     67 C          12.0632   17.0950    0.0000 C.3     1  UNL1        0.1130
     68 C           6.0010  -17.4050    0.0000 C.3     1  UNL1        0.1130
     69 C          13.7953    0.0950    0.0000 C.3     1  UNL1        0.1992
     70 C          12.9292   -0.4050    0.0000 C.3     1  UNL1        0.1819
     71 C          16.3933   13.5950    0.0000 C.3     1  UNL1        0.0879
     72 C           6.8671  -11.9050    0.0000 C.3     1  UNL1        0.0879
     73 C          12.0632    0.0950    0.0000 C.3     1  UNL1        0.1250
     74 C          17.2594   17.0950    0.0000 C.3     1  UNL1        0.0730
     75 C           3.4030  -12.9050    0.0000 C.3     1  UNL1        0.0730
     76 C          12.0632    1.0950    0.0000 C.3     1  UNL1        0.1105
     77 C          12.9292    1.5950    0.0000 C.3     1  UNL1        0.0874
     78 C          17.2594    3.0950    0.0000 C.3     1  UNL1       -0.0361
     79 C          12.0632   18.0950    0.0000 C.3     1  UNL1        0.0730
     80 C           5.1350  -17.9050    0.0000 C.3     1  UNL1        0.0730
     81 C          17.2594   13.0950    0.0000 C.3     1  UNL1       -0.0169
     82 C           6.8671  -10.9050    0.0000 C.3     1  UNL1       -0.0169
     83 C          15.8933   12.7290    0.0000 C.3     1  UNL1       -0.0321
     84 C           7.8671  -11.9050    0.0000 C.3     1  UNL1       -0.0321
     85 C          16.8933   14.4610    0.0000 C.2     1  UNL1       -0.0599
     86 C           5.8671  -11.9050    0.0000 C.2     1  UNL1       -0.0599
     87 C          12.9292    2.5950    0.0000 C.3     1  UNL1       -0.0361
     88 C          17.2594   12.0950    0.0000 C.3     1  UNL1       -0.0316
     89 C           7.7331  -10.4050    0.0000 C.3     1  UNL1       -0.0316
     90 C          20.7235    4.0950    0.0000 C.3     1  UNL1        0.0716
     91 C          21.5895    4.5950    0.0000 C.2     1  UNL1       -0.0511
     92 C          18.1254   11.5950    0.0000 C.2     1  UNL1       -0.0849
     93 C           7.7331   -9.4050    0.0000 C.2     1  UNL1       -0.0849
     94 C          12.0632   -1.9050    0.0000 C.2     1  UNL1        0.3351
     95 C          17.8933   14.4610    0.0000 C.2     1  UNL1       -0.1000
     96 C           5.3671  -11.0390    0.0000 C.2     1  UNL1       -0.1000
     97 C          18.1254   10.5950    0.0000 C.2     1  UNL1       -0.0762
     98 C           8.5991   -8.9050    0.0000 C.2     1  UNL1       -0.0762
     99 C          21.5895    5.5950    0.0000 C.2     1  UNL1       -0.0826
    100 C          22.4555    4.0950    0.0000 C.3     1  UNL1       -0.0416
    101 C          12.0632   -2.9050    0.0000 C.2     1  UNL1        0.0296
    102 C          18.9914   10.0950    0.0000 C.3     1  UNL1       -0.0286
    103 C           8.5991   -7.9050    0.0000 C.3     1  UNL1       -0.0286
    104 C          20.7235    6.0950    0.0000 C.3     1  UNL1       -0.0308
    105 C          17.2594   10.0950    0.0000 C.3     1  UNL1       -0.0438
    106 C           9.4651   -9.4050    0.0000 C.3     1  UNL1       -0.0438
    107 C          18.9914    9.0950    0.0000 C.3     1  UNL1       -0.0308
    108 C          20.7235    7.0950    0.0000 C.3     1  UNL1       -0.0286
    109 C          11.1972   -3.4050    0.0000 C.2     1  UNL1       -0.0740
    110 C           9.4651   -7.4050    0.0000 C.3     1  UNL1       -0.0308
    111 C          12.9292   -3.4050    0.0000 C.3     1  UNL1       -0.0332
    112 C          19.8574    7.5950    0.0000 C.2     1  UNL1       -0.0762
    113 C          11.1972   -4.4050    0.0000 C.3     1  UNL1       -0.0303
    114 C          19.8574    8.5950    0.0000 C.2     1  UNL1       -0.0847
    115 C          10.3312   -4.9050    0.0000 C.3     1  UNL1       -0.0286
    116 C           9.4651   -6.4050    0.0000 C.2     1  UNL1       -0.0847
    117 C          10.3312   -5.9050    0.0000 C.2     1  UNL1       -0.0762
    118 C          18.9914    7.0950    0.0000 C.3     1  UNL1       -0.0438
    119 C          11.1972   -6.4050    0.0000 C.3     1  UNL1       -0.0438
    120 H          14.1244   15.9050    0.0000 H       1  UNL1        0.0675
    121 H           6.0010  -15.0250    0.0000 H       1  UNL1        0.0675
    122 H          19.5284    0.7850    0.0000 H       1  UNL1        0.0651
    123 H          18.1254    0.2150    0.0000 H       1  UNL1        0.0938
    124 H          14.6613   17.2150    0.0000 H       1  UNL1        0.0648
    125 H           4.5981  -15.2150    0.0000 H       1  UNL1        0.0648
    126 H          16.3933    0.2150    0.0000 H       1  UNL1        0.0647
    127 H          18.1254   -2.0250    0.0000 H       1  UNL1        0.0671
    128 H          15.8564   -1.0950    0.0000 H       1  UNL1        0.0647
    129 H          16.7224   -2.2150    0.0000 H       1  UNL1        0.0648
    130 H          18.1254    0.9750    0.0000 H       1  UNL1        0.0646
    131 H          14.9904   14.7850    0.0000 H       1  UNL1        0.0938
    132 H           6.5380  -13.7150    0.0000 H       1  UNL1        0.0938
    133 H          16.0643   17.4050    0.0000 H       1  UNL1        0.0647
    134 H           3.7320  -14.0950    0.0000 H       1  UNL1        0.0647
    135 H          20.3944    1.9050    0.0000 H       1  UNL1        0.0671
    136 H          16.9303   16.2850    0.0000 H       1  UNL1        0.0647
    137 H           4.2690  -12.7850    0.0000 H       1  UNL1        0.0647
    138 H          12.9292   14.9750    0.0000 H       1  UNL1        0.0938
    139 H           7.4040  -15.5950    0.0000 H       1  UNL1        0.0938
    140 H          18.1254    3.2150    0.0000 H       1  UNL1        0.0621
    141 H          11.5263   14.7850    0.0000 H       1  UNL1        0.0671
    142 H           8.2700  -16.7150    0.0000 H       1  UNL1        0.0671
    143 H          19.8574    3.2150    0.0000 H       1  UNL1        0.0937
    144 H          10.6603   15.9050    0.0000 H       1  UNL1        0.0648
    145 H           7.7331  -18.0250    0.0000 H       1  UNL1        0.0648
    146 H          11.1972   17.2150    0.0000 H       1  UNL1        0.0647
    147 H           6.3301  -18.2150    0.0000 H       1  UNL1        0.0647
    148 H          15.9258    0.5699    0.0000 H       1  UNL1        0.0587
    149 H          15.1288    0.5699    0.0000 H       1  UNL1        0.0587
    150 H          12.6002   17.4050    0.0000 H       1  UNL1        0.0647
    151 H           5.4641  -17.0950    0.0000 H       1  UNL1        0.0647
    152 H          13.7953   -0.5250    0.0000 H       1  UNL1        0.0949
    153 H          12.3923   -0.7150    0.0000 H       1  UNL1        0.0813
    154 H          11.5263    0.4050    0.0000 H       1  UNL1        0.0659
    155 H          17.4714   16.5124    0.0000 H       1  UNL1        0.0584
    156 H          17.8699   17.2027    0.0000 H       1  UNL1        0.0584
    157 H           3.8015  -12.4301    0.0000 H       1  UNL1        0.0584
    158 H           3.0044  -12.4301    0.0000 H       1  UNL1        0.0584
    159 H          12.0632    1.7150    0.0000 H       1  UNL1        0.0646
    160 H          13.4662    1.9050    0.0000 H       1  UNL1        0.0621
    161 H          17.5694    3.6319    0.0000 H       1  UNL1        0.0255
    162 H          16.7224    3.4050    0.0000 H       1  UNL1        0.0255
    163 H          16.9494    2.5581    0.0000 H       1  UNL1        0.0255
    164 H          12.6738   17.9873    0.0000 H       1  UNL1        0.0584
    165 H          12.2753   18.6776    0.0000 H       1  UNL1        0.0584
    166 H           4.7365  -18.3799    0.0000 H       1  UNL1        0.0584
    167 H           5.5335  -18.3799    0.0000 H       1  UNL1        0.0584
    168 H          13.7953   17.7150    0.0000 H       1  UNL1        0.2100
    169 H           4.5981  -16.2150    0.0000 H       1  UNL1        0.2100
    170 H          19.5284   -1.5950    0.0000 H       1  UNL1        0.2101
    171 H          15.5273   -2.5250    0.0000 H       1  UNL1        0.2100
    172 H          17.7963   -3.2150    0.0000 H       1  UNL1        0.2100
    173 H          17.8699   12.9873    0.0000 H       1  UNL1        0.0299
    174 H          17.4714   13.6776    0.0000 H       1  UNL1        0.0299
    175 H           6.6550  -10.3224    0.0000 H       1  UNL1        0.0299
    176 H           6.2565  -11.0127    0.0000 H       1  UNL1        0.0299
    177 H          16.7224    1.4050    0.0000 H       1  UNL1        0.2100
    178 H          14.9904   18.4050    0.0000 H       1  UNL1        0.2100
    179 H           3.4030  -15.5250    0.0000 H       1  UNL1        0.2100
    180 H          21.2604    1.4050    0.0000 H       1  UNL1        0.2101
    181 H          11.5263   13.7850    0.0000 H       1  UNL1        0.2101
    182 H           9.1360  -16.2150    0.0000 H       1  UNL1        0.2101
    183 H          15.3564   13.0390    0.0000 H       1  UNL1        0.0260
    184 H          15.5833   12.1920    0.0000 H       1  UNL1        0.0260
    185 H          16.4303   12.4190    0.0000 H       1  UNL1        0.0260
    186 H           7.8671  -12.5250    0.0000 H       1  UNL1        0.0260
    187 H           8.4871  -11.9050    0.0000 H       1  UNL1        0.0260
    188 H           7.8671  -11.2850    0.0000 H       1  UNL1        0.0260
    189 H           9.7942   15.4050    0.0000 H       1  UNL1        0.2100
    190 H           8.5991  -18.5250    0.0000 H       1  UNL1        0.2100
    191 H           9.7942   16.7850    0.0000 H       1  UNL1        0.2100
    192 H           6.3301  -19.2150    0.0000 H       1  UNL1        0.2100
    193 H          16.5833   14.9980    0.0000 H       1  UNL1        0.0594
    194 H           5.5571  -12.4419    0.0000 H       1  UNL1        0.0594
    195 H          13.5492    2.5950    0.0000 H       1  UNL1        0.0255
    196 H          12.9292    3.2150    0.0000 H       1  UNL1        0.0255
    197 H          12.3092    2.5950    0.0000 H       1  UNL1        0.0255
    198 H          16.6488   12.2027    0.0000 H       1  UNL1        0.0308
    199 H          17.0473   11.5124    0.0000 H       1  UNL1        0.0308
    200 H           7.9451  -10.9876    0.0000 H       1  UNL1        0.0308
    201 H           8.3437  -10.2973    0.0000 H       1  UNL1        0.0308
    202 H          20.5114    4.6776    0.0000 H       1  UNL1        0.0608
    203 H          20.1129    3.9873    0.0000 H       1  UNL1        0.0608
    204 H          10.6603   -0.0950    0.0000 H       1  UNL1        0.2101
    205 H          17.7963   18.4050    0.0000 H       1  UNL1        0.2095
    206 H           2.0000  -13.0950    0.0000 H       1  UNL1        0.2095
    207 H          11.1972    2.2150    0.0000 H       1  UNL1        0.2100
    208 H          11.1972   19.2150    0.0000 H       1  UNL1        0.2095
    209 H           3.7320  -17.7150    0.0000 H       1  UNL1        0.2095
    210 H          18.6623   11.9050    0.0000 H       1  UNL1        0.0572
    211 H           7.1962   -9.0950    0.0000 H       1  UNL1        0.0572
    212 H          18.2033   13.9241    0.0000 H       1  UNL1        0.0533
    213 H          18.2033   14.9980    0.0000 H       1  UNL1        0.0533
    214 H           5.6771  -10.5020    0.0000 H       1  UNL1        0.0533
    215 H           4.7471  -11.0390    0.0000 H       1  UNL1        0.0533
    216 H          22.1264    5.9050    0.0000 H       1  UNL1        0.0572
    217 H          22.1455    3.5581    0.0000 H       1  UNL1        0.0275
    218 H          22.9925    3.7850    0.0000 H       1  UNL1        0.0275
    219 H          22.7655    4.6319    0.0000 H       1  UNL1        0.0275
    220 H          19.6020    9.9873    0.0000 H       1  UNL1        0.0313
    221 H          19.2035   10.6776    0.0000 H       1  UNL1        0.0313
    222 H           8.3871   -7.3224    0.0000 H       1  UNL1        0.0313
    223 H           7.9885   -8.0127    0.0000 H       1  UNL1        0.0313
    224 H          20.1129    6.2027    0.0000 H       1  UNL1        0.0310
    225 H          20.5114    5.5124    0.0000 H       1  UNL1        0.0310
    226 H          16.9494   10.6319    0.0000 H       1  UNL1        0.0274
    227 H          16.7224    9.7850    0.0000 H       1  UNL1        0.0274
    228 H          17.5694    9.5581    0.0000 H       1  UNL1        0.0274
    229 H           9.1551   -9.9419    0.0000 H       1  UNL1        0.0274
    230 H          10.0021   -9.7150    0.0000 H       1  UNL1        0.0274
    231 H           9.7751   -8.8681    0.0000 H       1  UNL1        0.0274
    232 H          18.3808    9.2027    0.0000 H       1  UNL1        0.0310
    233 H          18.7794    8.5124    0.0000 H       1  UNL1        0.0310
    234 H          21.3340    6.9873    0.0000 H       1  UNL1        0.0313
    235 H          20.9355    7.6776    0.0000 H       1  UNL1        0.0313
    236 H          10.6603   -3.0950    0.0000 H       1  UNL1        0.0577
    237 H           9.6772   -7.9876    0.0000 H       1  UNL1        0.0310
    238 H          10.0757   -7.2973    0.0000 H       1  UNL1        0.0310
    239 H          12.6192   -3.9419    0.0000 H       1  UNL1        0.0280
    240 H          13.4662   -3.7150    0.0000 H       1  UNL1        0.0280
    241 H          13.2392   -2.8681    0.0000 H       1  UNL1        0.0280
    242 H          11.4092   -4.9876    0.0000 H       1  UNL1        0.0311
    243 H          11.8078   -4.2973    0.0000 H       1  UNL1        0.0311
    244 H          20.3944    8.9050    0.0000 H       1  UNL1        0.0572
    245 H          10.1191   -4.3224    0.0000 H       1  UNL1        0.0313
    246 H           9.7206   -5.0127    0.0000 H       1  UNL1        0.0313
    247 H           8.9282   -6.0950    0.0000 H       1  UNL1        0.0572
    248 H          18.6814    7.6319    0.0000 H       1  UNL1        0.0274
    249 H          18.4545    6.7850    0.0000 H       1  UNL1        0.0274
    250 H          19.3014    6.5581    0.0000 H       1  UNL1        0.0274
    251 H          10.8872   -6.9419    0.0000 H       1  UNL1        0.0274
    252 H          11.7341   -6.7150    0.0000 H       1  UNL1        0.0274
    253 H          11.5072   -5.8681    0.0000 H       1  UNL1        0.0274
@<TRIPOS>BOND
     1     1    40    1
     2     1    41    1
     3     2    41    1
     4     2    44    1
     5     3    38    1
     6     3    56    1
     7     4    39    1
     8     4    57    1
     9     5    49    1
    10     5    54    1
    11     6    50    1
    12     6    55    1
    13     7    58    1
    14     7    61    1
    15     8    56    1
    16     8    67    1
    17     9    57    1
    18     9    68    1
    19    10    49    1
    20    10    71    1
    21    11    50    1
    22    11    72    1
    23    12    66    1
    24    12    69    1
    25    13    42    1
    26    13   168    1
    27    14    43    1
    28    14   169    1
    29    15    45    1
    30    15   170    1
    31    16    46    1
    32    16   171    1
    33    17    47    1
    34    17   172    1
    35    18    48    1
    36    18   177    1
    37    19    69    1
    38    19    77    1
    39    20    51    1
    40    20   178    1
    41    21    52    1
    42    21   179    1
    43    22    53    1
    44    22   180    1
    45    23    61    1
    46    23    90    1
    47    24    59    1
    48    24   181    1
    49    25    60    1
    50    25   182    1
    51    26    62    1
    52    26   189    1
    53    27    63    1
    54    27   190    1
    55    28    64    1
    56    28   191    1
    57    29    65    1
    58    29   192    1
    59    30    70    1
    60    30    94    1
    61    31    73    1
    62    31   204    1
    63    32    74    1
    64    32   205    1
    65    33    75    1
    66    33   206    1
    67    34    76    1
    68    34   207    1
    69    35    79    1
    70    35   208    1
    71    36    80    1
    72    36   209    1
    73    37    94    2
    74    38    42    1
    75    38    49    1
    76    38   120    1
    77    39    43    1
    78    39    50    1
    79    39   121    1
    80    40    48    1
    81    40    53    1
    82    40   122    1
    83    41    45    1
    84    41   123    1
    85    42    51    1
    86    42   124    1
    87    43    52    1
    88    43   125    1
    89    44    46    1
    90    44    66    1
    91    44   126    1
    92    45    47    1
    93    45   127    1
    94    46    47    1
    95    46   128    1
    96    47   129    1
    97    48    58    1
    98    48   130    1
    99    49   131    1
   100    50   132    1
   101    51    54    1
   102    51   133    1
   103    52    55    1
   104    52   134    1
   105    53    61    1
   106    53   135    1
   107    54    74    1
   108    54   136    1
   109    55    75    1
   110    55   137    1
   111    56    59    1
   112    56   138    1
   113    57    60    1
   114    57   139    1
   115    58    78    1
   116    58   140    1
   117    59    62    1
   118    59   141    1
   119    60    63    1
   120    60   142    1
   121    61   143    1
   122    62    64    1
   123    62   144    1
   124    63    65    1
   125    63   145    1
   126    64    67    1
   127    64   146    1
   128    65    68    1
   129    65   147    1
   130    66   148    1
   131    66   149    1
   132    67    79    1
   133    67   150    1
   134    68    80    1
   135    68   151    1
   136    69    70    1
   137    69   152    1
   138    70    73    1
   139    70   153    1
   140    71    81    1
   141    71    83    1
   142    71    85    1
   143    72    82    1
   144    72    84    1
   145    72    86    1
   146    73    76    1
   147    73   154    1
   148    74   155    1
   149    74   156    1
   150    75   157    1
   151    75   158    1
   152    76    77    1
   153    76   159    1
   154    77    87    1
   155    77   160    1
   156    78   161    1
   157    78   162    1
   158    78   163    1
   159    79   164    1
   160    79   165    1
   161    80   166    1
   162    80   167    1
   163    81    88    1
   164    81   173    1
   165    81   174    1
   166    82    89    1
   167    82   175    1
   168    82   176    1
   169    83   183    1
   170    83   184    1
   171    83   185    1
   172    84   186    1
   173    84   187    1
   174    84   188    1
   175    85    95    2
   176    85   193    1
   177    86    96    2
   178    86   194    1
   179    87   195    1
   180    87   196    1
   181    87   197    1
   182    88    92    1
   183    88   198    1
   184    88   199    1
   185    89    93    1
   186    89   200    1
   187    89   201    1
   188    90    91    1
   189    90   202    1
   190    90   203    1
   191    91    99    2
   192    91   100    1
   193    92    97    2
   194    92   210    1
   195    93    98    2
   196    93   211    1
   197    94   101    1
   198    95   212    1
   199    95   213    1
   200    96   214    1
   201    96   215    1
   202    97   102    1
   203    97   105    1
   204    98   103    1
   205    98   106    1
   206    99   104    1
   207    99   216    1
   208   100   217    1
   209   100   218    1
   210   100   219    1
   211   101   109    2
   212   101   111    1
   213   102   107    1
   214   102   220    1
   215   102   221    1
   216   103   110    1
   217   103   222    1
   218   103   223    1
   219   104   108    1
   220   104   224    1
   221   104   225    1
   222   105   226    1
   223   105   227    1
   224   105   228    1
   225   106   229    1
   226   106   230    1
   227   106   231    1
   228   107   114    1
   229   107   232    1
   230   107   233    1
   231   108   112    1
   232   108   234    1
   233   108   235    1
   234   109   113    1
   235   109   236    1
   236   110   116    1
   237   110   237    1
   238   110   238    1
   239   111   239    1
   240   111   240    1
   241   111   241    1
   242   112   114    2
   243   112   118    1
   244   113   115    1
   245   113   242    1
   246   113   243    1
   247   114   244    1
   248   115   117    1
   249   115   245    1
   250   115   246    1
   251   116   117    2
   252   116   247    1
   253   117   119    1
   254   118   248    1
   255   118   249    1
   256   118   250    1
   257   119   251    1
   258   119   252    1
   259   119   253    1
