@<TRIPOS>MOLECULE
IMPHY016564
 34 34 0 0 0
SMALL
GASTEIGER

@<TRIPOS>ATOM
      1 O           4.5981    0.5000    0.0000 O.3     1  UNL1       -0.4605
      2 O           3.7320    2.0000    0.0000 O.2     1  UNL1       -0.2508
      3 C           5.4641    3.0000    0.0000 C.3     1  UNL1       -0.0432
      4 C           6.3301    3.5000    0.0000 C.3     1  UNL1       -0.0554
      5 C           5.4641    2.0000    0.0000 C.3     1  UNL1        0.0449
      6 C           6.3301    4.5000    0.0000 C.3     1  UNL1       -0.0653
      7 C           4.5981    1.5000    0.0000 C.2     1  UNL1        0.3074
      8 C           3.7320    0.0000    0.0000 C.3     1  UNL1        0.1110
      9 C           2.8660   -2.5000    0.0000 C.ar    1  UNL1       -0.0252
     10 C           3.7320   -1.0000    0.0000 C.2     1  UNL1       -0.0465
     11 C           2.8660   -1.5000    0.0000 C.2     1  UNL1       -0.0554
     12 C           2.0000   -3.0000    0.0000 C.ar    1  UNL1       -0.0546
     13 C           3.7320   -3.0000    0.0000 C.ar    1  UNL1       -0.0546
     14 C           2.0000   -4.0000    0.0000 C.ar    1  UNL1       -0.0612
     15 C           3.7320   -4.0000    0.0000 C.ar    1  UNL1       -0.0612
     16 C           2.8660   -4.5000    0.0000 C.ar    1  UNL1       -0.0617
     17 H           5.2520    3.5826    0.0000 H       1  UNL1        0.0270
     18 H           4.8535    2.8923    0.0000 H       1  UNL1        0.0270
     19 H           6.5422    2.9174    0.0000 H       1  UNL1        0.0263
     20 H           6.9407    3.6077    0.0000 H       1  UNL1        0.0263
     21 H           5.6762    1.4174    0.0000 H       1  UNL1        0.0377
     22 H           6.0747    2.1077    0.0000 H       1  UNL1        0.0377
     23 H           6.9501    4.5000    0.0000 H       1  UNL1        0.0230
     24 H           6.3301    5.1200    0.0000 H       1  UNL1        0.0230
     25 H           5.7101    4.5000    0.0000 H       1  UNL1        0.0230
     26 H           3.5200    0.5826    0.0000 H       1  UNL1        0.0743
     27 H           3.1215   -0.1077    0.0000 H       1  UNL1        0.0743
     28 H           4.2690   -1.3100    0.0000 H       1  UNL1        0.0606
     29 H           2.3291   -1.1900    0.0000 H       1  UNL1        0.0621
     30 H           1.4631   -2.6900    0.0000 H       1  UNL1        0.0623
     31 H           4.2690   -2.6900    0.0000 H       1  UNL1        0.0623
     32 H           1.4631   -4.3100    0.0000 H       1  UNL1        0.0618
     33 H           4.2690   -4.3100    0.0000 H       1  UNL1        0.0618
     34 H           2.8660   -5.1200    0.0000 H       1  UNL1        0.0618
@<TRIPOS>BOND
     1     1     7    1
     2     1     8    1
     3     2     7    2
     4     3     4    1
     5     3     5    1
     6     3    17    1
     7     3    18    1
     8     4     6    1
     9     4    19    1
    10     4    20    1
    11     5     7    1
    12     5    21    1
    13     5    22    1
    14     6    23    1
    15     6    24    1
    16     6    25    1
    17     8    10    1
    18     8    26    1
    19     8    27    1
    20     9    11    1
    21     9    12   ar
    22     9    13   ar
    23    10    11    2
    24    10    28    1
    25    11    29    1
    26    12    14   ar
    27    12    30    1
    28    13    15   ar
    29    13    31    1
    30    14    16   ar
    31    14    32    1
    32    15    16   ar
    33    15    33    1
    34    16    34    1
