@<TRIPOS>MOLECULE
IMPHY009269
 52 57 0 0 0
SMALL
GASTEIGER

@<TRIPOS>ATOM
      1 O           5.6083   -1.4020    0.0000 O.3     1  UNL1       -0.4910
      2 O           5.5740   -3.7211    0.0000 O.3     1  UNL1       -0.4489
      3 O           6.5035    3.2417    0.0000 O.3     1  UNL1       -0.4622
      4 O           4.0684   -4.6059    0.0000 O.3     1  UNL1       -0.4525
      5 O           7.4348    1.6142    0.0000 O.3     1  UNL1       -0.3392
      6 O           4.6622    4.2128    0.0000 O.3     1  UNL1       -0.4914
      7 N           2.9180    0.1435    0.0000 N.3     1  UNL1       -0.2905
      8 C           3.7841   -0.3565    0.0000 C.3     1  UNL1        0.0438
      9 C           4.6501    0.1435    0.0000 C.3     1  UNL1       -0.0070
     10 C           3.8001   -1.3980    0.0000 C.ar    1  UNL1        0.0187
     11 C           2.0080   -0.3634    0.0000 C.3     1  UNL1        0.0038
     12 C           2.9180    1.1435    0.0000 C.3     1  UNL1        0.0250
     13 C           4.6501    1.1435    0.0000 C.ar    1  UNL1       -0.0321
     14 C           2.0000   -1.4050    0.0000 C.3     1  UNL1       -0.0143
     15 C           3.7841    1.6435    0.0000 C.ar    1  UNL1       -0.0261
     16 C           2.9021   -1.9258    0.0000 C.ar    1  UNL1       -0.0343
     17 C           5.5601    1.6503    0.0000 C.ar    1  UNL1        0.0271
     18 C           4.7520   -1.9186    0.0000 C.ar    1  UNL1        0.1702
     19 C           2.8937   -3.0107    0.0000 C.ar    1  UNL1       -0.0124
     20 C           3.7680    2.6850    0.0000 C.ar    1  UNL1       -0.0116
     21 C           5.5681    2.6919    0.0000 C.ar    1  UNL1        0.1706
     22 C           4.7688   -3.0035    0.0000 C.ar    1  UNL1        0.2079
     23 C           3.8334   -3.5532    0.0000 C.ar    1  UNL1        0.1702
     24 C           4.6660    3.2128    0.0000 C.ar    1  UNL1        0.1623
     25 C           6.4869    1.0863    0.0000 C.3     1  UNL1        0.0802
     26 C           5.1420   -4.7094    0.0000 C.3     1  UNL1        0.2334
     27 C           7.4432    2.6992    0.0000 C.3     1  UNL1        0.1913
     28 C           6.4838   -1.8853    0.0000 C.3     1  UNL1        0.0790
     29 C           3.7942    4.7094    0.0000 C.3     1  UNL1        0.0790
     30 H           4.5234   -0.7758    0.0000 H       1  UNL1        0.0517
     31 H           4.8621   -0.4391    0.0000 H       1  UNL1        0.0332
     32 H           5.2607    0.2512    0.0000 H       1  UNL1        0.0332
     33 H           1.8035    0.2219    0.0000 H       1  UNL1        0.0430
     34 H           1.3964   -0.4647    0.0000 H       1  UNL1        0.0430
     35 H           2.7060    1.7261    0.0000 H       1  UNL1        0.0476
     36 H           2.3074    1.0358    0.0000 H       1  UNL1        0.0476
     37 H           1.3900   -1.2942    0.0000 H       1  UNL1        0.0326
     38 H           1.7864   -1.9870    0.0000 H       1  UNL1        0.0326
     39 H           2.3556   -3.3187    0.0000 H       1  UNL1        0.0658
     40 H           3.2275    2.9888    0.0000 H       1  UNL1        0.0658
     41 H           6.0787    0.6196    0.0000 H       1  UNL1        0.0612
     42 H           6.8768    0.6042    0.0000 H       1  UNL1        0.0612
     43 H           5.0180   -5.3169    0.0000 H       1  UNL1        0.1166
     44 H           5.7331   -4.8966    0.0000 H       1  UNL1        0.1166
     45 H           8.0532    2.5884    0.0000 H       1  UNL1        0.1017
     46 H           7.6567    3.2812    0.0000 H       1  UNL1        0.1017
     47 H           6.1842   -2.4281    0.0000 H       1  UNL1        0.0660
     48 H           7.0266   -2.1848    0.0000 H       1  UNL1        0.0660
     49 H           6.7834   -1.3424    0.0000 H       1  UNL1        0.0660
     50 H           4.1022    5.2475    0.0000 H       1  UNL1        0.0660
     51 H           3.2561    5.0173    0.0000 H       1  UNL1        0.0660
     52 H           3.4863    4.1713    0.0000 H       1  UNL1        0.0660
@<TRIPOS>BOND
     1     1    18    1
     2     1    28    1
     3     2    22    1
     4     2    26    1
     5     3    21    1
     6     3    27    1
     7     4    23    1
     8     4    26    1
     9     5    25    1
    10     5    27    1
    11     6    24    1
    12     6    29    1
    13     7     8    1
    14     7    11    1
    15     7    12    1
    16     8     9    1
    17     8    10    1
    18     8    30    1
    19     9    13    1
    20     9    31    1
    21     9    32    1
    22    10    16   ar
    23    10    18   ar
    24    11    14    1
    25    11    33    1
    26    11    34    1
    27    12    15    1
    28    12    35    1
    29    12    36    1
    30    13    15   ar
    31    13    17   ar
    32    14    16    1
    33    14    37    1
    34    14    38    1
    35    15    20   ar
    36    16    19   ar
    37    17    21   ar
    38    17    25    1
    39    18    22   ar
    40    19    23   ar
    41    19    39    1
    42    20    24   ar
    43    20    40    1
    44    21    24   ar
    45    22    23   ar
    46    25    41    1
    47    25    42    1
    48    26    43    1
    49    26    44    1
    50    27    45    1
    51    27    46    1
    52    28    47    1
    53    28    48    1
    54    28    49    1
    55    29    50    1
    56    29    51    1
    57    29    52    1
