@<TRIPOS>MOLECULE
IMPHY006439
 49 53 0 0 0
SMALL
GASTEIGER

@<TRIPOS>ATOM
      1 O           3.4112    0.4115    0.0000 O.3     1  UNL1       -0.3496
      2 O           2.0949   -0.9211    0.0000 O.3     1  UNL1       -0.4568
      3 O           4.3500    1.7150    0.0000 O.3     1  UNL1       -0.3662
      4 O           6.0184   -2.4452    0.0000 O.3     1  UNL1       -0.3877
      5 O           2.0000   -2.6949    0.0000 O.2     1  UNL1       -0.2453
      6 O           6.4433    0.0619    0.0000 O.3     1  UNL1       -0.3870
      7 O           7.8932    3.0617    0.0000 O.2     1  UNL1       -0.4707
      8 C           3.6979   -0.7540    0.0000 C.3     1  UNL1        0.0667
      9 C           4.5640   -0.2540    0.0000 C.3     1  UNL1       -0.0089
     10 C           4.5640    0.7460    0.0000 C.3     1  UNL1        0.0488
     11 C           2.8319   -0.2540    0.0000 C.3     1  UNL1        0.1192
     12 C           5.3326   -0.8748    0.0000 C.3     1  UNL1       -0.0184
     13 C           3.4948   -0.3841    0.0000 C.3     1  UNL1        0.0642
     14 C           3.4887   -1.7259    0.0000 C.2     1  UNL1        0.0472
     15 C           3.6979    1.2459    0.0000 C.2     1  UNL1       -0.0618
     16 C           2.8319    0.7460    0.0000 C.3     1  UNL1        0.0069
     17 C           4.1420    0.7369    0.0000 C.3     1  UNL1        0.1658
     18 C           5.3300    1.3887    0.0000 C.3     1  UNL1       -0.0083
     19 C           5.2109   -1.8554    0.0000 C.3     1  UNL1        0.0744
     20 C           4.3138   -2.2694    0.0000 C.2     1  UNL1       -0.0452
     21 C           2.5000   -1.8289    0.0000 C.2     1  UNL1        0.3360
     22 C           6.2697    1.0467    0.0000 C.3     1  UNL1        0.0841
     23 C           3.6979    2.2460    0.0000 C.2     1  UNL1       -0.0986
     24 C           7.0357    1.6895    0.0000 C.ar    1  UNL1        0.0186
     25 C           8.0060    1.4476    0.0000 C.ar    1  UNL1       -0.0183
     26 C           6.9660    2.6871    0.0000 C.ar    1  UNL1        0.0973
     27 C           8.5360    2.2956    0.0000 C.ar    1  UNL1        0.0920
     28 H           5.4140   -0.2540    0.0000 H       1  UNL1        0.0322
     29 H           2.0958    0.1710    0.0000 H       1  UNL1        0.0747
     30 H           5.9233   -1.0632    0.0000 H       1  UNL1        0.0296
     31 H           5.6266   -0.3290    0.0000 H       1  UNL1        0.0296
     32 H           2.9001   -0.2090    0.0000 H       1  UNL1        0.0571
     33 H           4.0865   -0.1989    0.0000 H       1  UNL1        0.0571
     34 H           2.6198    1.3286    0.0000 H       1  UNL1        0.0346
     35 H           2.2213    0.6383    0.0000 H       1  UNL1        0.0346
     36 H           3.6602    1.1271    0.0000 H       1  UNL1        0.0916
     37 H           5.6400    1.9257    0.0000 H       1  UNL1        0.0304
     38 H           4.8550    1.7873    0.0000 H       1  UNL1        0.0304
     39 H           5.7800   -1.6092    0.0000 H       1  UNL1        0.0638
     40 H           4.2673   -2.8876    0.0000 H       1  UNL1        0.0603
     41 H           5.7947    0.6482    0.0000 H       1  UNL1        0.0645
     42 H           4.2349    2.5560    0.0000 H       1  UNL1        0.0535
     43 H           3.1610    2.5560    0.0000 H       1  UNL1        0.0535
     44 H           4.8385    2.0967    0.0000 H       1  UNL1        0.2125
     45 H           5.9520   -3.0617    0.0000 H       1  UNL1        0.2102
     46 H           7.0260   -0.1501    0.0000 H       1  UNL1        0.2102
     47 H           8.2383    0.8727    0.0000 H       1  UNL1        0.0652
     48 H           6.4402    3.0156    0.0000 H       1  UNL1        0.1033
     49 H           9.1544    2.3389    0.0000 H       1  UNL1        0.1029
@<TRIPOS>BOND
     1     1    13    1
     2     1    17    1
     3     2    11    1
     4     2    21    1
     5    17     3    1
     6     3    44    1
     7    19     4    1
     8     4    45    1
     9     5    21    2
    10    22     6    1
    11     6    46    1
    12     7    26   ar
    13     7    27   ar
    14     8     9    1
    15     8    11    1
    16     8    13    1
    17     8    14    1
    18     9    10    1
    19     9    12    1
    20     9    28    1
    21    10    15    1
    22    10    17    1
    23    10    18    1
    24    11    16    1
    25    11    29    1
    26    12    19    1
    27    12    30    1
    28    12    31    1
    29    13    32    1
    30    13    33    1
    31    14    20    2
    32    14    21    1
    33    15    16    1
    34    15    23    2
    35    16    34    1
    36    16    35    1
    37    17    36    1
    38    18    22    1
    39    18    37    1
    40    18    38    1
    41    19    20    1
    42    19    39    1
    43    20    40    1
    44    22    24    1
    45    22    41    1
    46    23    42    1
    47    23    43    1
    48    24    25   ar
    49    24    26   ar
    50    25    27   ar
    51    25    47    1
    52    26    48    1
    53    27    49    1
