@<TRIPOS>MOLECULE
IMPHY013509
 33 35 0 0 0
SMALL
GASTEIGER

@<TRIPOS>ATOM
      1 O           4.6660   -0.5600    0.0000 O.2     1  UNL1       -0.4856
      2 O           6.3981    1.4400    0.0000 O.3     1  UNL1       -0.3878
      3 C           3.8000    0.9400    0.0000 C.3     1  UNL1        0.0225
      4 C           4.6660    1.4400    0.0000 C.3     1  UNL1       -0.0131
      5 C           5.5321    0.9400    0.0000 C.3     1  UNL1        0.0968
      6 C           5.5321   -0.0600    0.0000 C.3     1  UNL1        0.1504
      7 C           3.8000   -0.0600    0.0000 C.2     1  UNL1        0.1021
      8 C           2.9061    1.4747    0.0000 C.3     1  UNL1       -0.0247
      9 C           6.3981   -0.5600    0.0000 C.ar    1  UNL1       -0.0049
     10 C           2.9061   -0.5947    0.0000 C.2     1  UNL1       -0.0242
     11 C           2.0000    0.9608    0.0000 C.2     1  UNL1       -0.0832
     12 C           2.0000   -0.0808    0.0000 C.2     1  UNL1       -0.0625
     13 C           7.2641   -0.0600    0.0000 C.ar    1  UNL1       -0.0550
     14 C           6.3981   -1.5600    0.0000 C.ar    1  UNL1       -0.0550
     15 C           8.1301   -0.5600    0.0000 C.ar    1  UNL1       -0.0614
     16 C           7.2641   -2.0600    0.0000 C.ar    1  UNL1       -0.0614
     17 C           8.1301   -1.5600    0.0000 C.ar    1  UNL1       -0.0617
     18 H           3.8048    1.5600    0.0000 H       1  UNL1        0.0383
     19 H           5.0646    1.9150    0.0000 H       1  UNL1        0.0298
     20 H           4.2675    1.9150    0.0000 H       1  UNL1        0.0298
     21 H           6.0690    0.6300    0.0000 H       1  UNL1        0.0634
     22 H           5.5321   -0.6800    0.0000 H       1  UNL1        0.0810
     23 H           3.3107    1.9444    0.0000 H       1  UNL1        0.0314
     24 H           2.5124    1.9537    0.0000 H       1  UNL1        0.0314
     25 H           2.9132   -1.2146    0.0000 H       1  UNL1        0.0651
     26 H           1.4643    1.2729    0.0000 H       1  UNL1        0.0572
     27 H           1.4643   -0.3929    0.0000 H       1  UNL1        0.0616
     28 H           6.3981    2.0600    0.0000 H       1  UNL1        0.2100
     29 H           7.2641    0.5600    0.0000 H       1  UNL1        0.0621
     30 H           5.8612   -1.8700    0.0000 H       1  UNL1        0.0621
     31 H           8.6671   -0.2500    0.0000 H       1  UNL1        0.0618
     32 H           7.2641   -2.6800    0.0000 H       1  UNL1        0.0618
     33 H           8.6671   -1.8700    0.0000 H       1  UNL1        0.0618
@<TRIPOS>BOND
     1     1     6    1
     2     1     7    1
     3     2     5    1
     4     2    28    1
     5     3     4    1
     6     3     7    1
     7     3     8    1
     8     3    18    1
     9     4     5    1
    10     4    19    1
    11     4    20    1
    12     5     6    1
    13     5    21    1
    14     6     9    1
    15     6    22    1
    16     7    10    2
    17     8    11    1
    18     8    23    1
    19     8    24    1
    20     9    13   ar
    21     9    14   ar
    22    10    12    1
    23    10    25    1
    24    11    12    2
    25    11    26    1
    26    12    27    1
    27    13    15   ar
    28    13    29    1
    29    14    16   ar
    30    14    30    1
    31    15    17   ar
    32    15    31    1
    33    16    17   ar
    34    16    32    1
    35    17    33    1
