@<TRIPOS>MOLECULE
IMPHY008322
 101 107 0 0 0
SMALL
GASTEIGER

@<TRIPOS>ATOM
      1 O           7.7289   -1.2122    0.0000 O.3     1  UNL1       -0.3474
      2 O           4.0913    0.3268    0.0000 O.3     1  UNL1       -0.3849
      3 O           4.2576    1.8726    0.0000 O.3     1  UNL1       -0.4579
      4 O           6.8671   -2.7027    0.0000 O.3     1  UNL1       -0.3201
      5 O           7.4567    3.7630    0.0000 O.2     1  UNL1       -0.2929
      6 O           8.7151    4.3304    0.0000 O.3     1  UNL1       -0.4538
      7 O           6.4301    3.7764    0.0000 O.2     1  UNL1       -0.2916
      8 O           5.1350   -2.7027    0.0000 O.3     1  UNL1       -0.3404
      9 O           3.3565    0.3934    0.0000 O.2     1  UNL1       -0.2512
     10 O           6.8671   -4.7027    0.0000 O.3     1  UNL1       -0.3841
     11 O          10.4470    4.3030    0.0000 O.2     1  UNL1       -0.2511
     12 O           4.2115    5.8788    0.0000 O.3     1  UNL1       -0.4526
     13 O           5.1350   -5.7027    0.0000 O.3     1  UNL1       -0.3864
     14 O           2.7932    5.1180    0.0000 O.3     1  UNL1       -0.4526
     15 O           3.4030   -4.7027    0.0000 O.3     1  UNL1       -0.3865
     16 O           2.5369   -3.2027    0.0000 O.3     1  UNL1       -0.3924
     17 C           6.8912    0.2963    0.0000 C.3     1  UNL1        0.0044
     18 C           6.9109    1.2961    0.0000 C.3     1  UNL1       -0.0071
     19 C           7.7866    1.7790    0.0000 C.3     1  UNL1        0.0370
     20 C           5.9869   -0.2206    0.0000 C.3     1  UNL1        0.0037
     21 C           7.7472   -0.2206    0.0000 C.3     1  UNL1        0.0680
     22 C           8.6426    1.2620    0.0000 C.3     1  UNL1       -0.0260
     23 C           6.0277    1.8483    0.0000 C.3     1  UNL1        0.0661
     24 C           5.0911    0.3110    0.0000 C.3     1  UNL1        0.1042
     25 C           8.6229    0.2622    0.0000 C.3     1  UNL1       -0.0222
     26 C           5.1116    1.3524    0.0000 C.3     1  UNL1        0.1416
     27 C           6.0052   -1.2122    0.0000 C.3     1  UNL1        0.0047
     28 C           6.0352    0.8133    0.0000 C.3     1  UNL1       -0.0565
     29 C           9.5624    1.7508    0.0000 C.3     1  UNL1       -0.0455
     30 C           7.7910    2.8206    0.0000 C.2     1  UNL1        0.1799
     31 C           6.9306    2.2959    0.0000 C.3     1  UNL1       -0.0521
     32 C           6.8671   -1.7027    0.0000 C.3     1  UNL1        0.1630
     33 C           8.6993    3.3306    0.0000 C.3     1  UNL1        0.1610
     34 C           9.5910    2.7921    0.0000 C.3     1  UNL1       -0.0083
     35 C           4.5775   -0.5470    0.0000 C.3     1  UNL1       -0.0323
     36 C           6.0589    2.8478    0.0000 C.2     1  UNL1        0.1702
     37 C           5.2089    3.3746    0.0000 C.ar    1  UNL1        0.0215
     38 C           3.3801    1.3932    0.0000 C.2     1  UNL1        0.3043
     39 C           6.0010   -3.2027    0.0000 C.3     1  UNL1        0.1908
     40 C           5.2402    4.3741    0.0000 C.ar    1  UNL1       -0.0057
     41 C           4.3277    2.9019    0.0000 C.ar    1  UNL1       -0.0476
     42 C           6.0010   -4.2027    0.0000 C.3     1  UNL1        0.1342
     43 C           9.5890    4.8167    0.0000 C.2     1  UNL1        0.3046
     44 C           2.5261    1.9134    0.0000 C.3     1  UNL1        0.0332
     45 C           5.1350   -4.7027    0.0000 C.3     1  UNL1        0.1141
     46 C           4.3902    4.9010    0.0000 C.ar    1  UNL1        0.1669
     47 C           4.2690   -3.2027    0.0000 C.3     1  UNL1        0.1130
     48 C           3.4777    3.4288    0.0000 C.ar    1  UNL1       -0.0155
     49 C           4.2690   -4.2027    0.0000 C.3     1  UNL1        0.1119
     50 C           3.5090    4.4283    0.0000 C.ar    1  UNL1        0.1663
     51 C           9.6048    5.8165    0.0000 C.3     1  UNL1        0.0333
     52 C           3.4030   -2.7027    0.0000 C.3     1  UNL1        0.0730
     53 C           3.2264    6.0127    0.0000 C.3     1  UNL1        0.2332
     54 H           7.6385    0.8567    0.0000 H       1  UNL1        0.0324
     55 H           5.2522   -0.6480    0.0000 H       1  UNL1        0.0337
     56 H           8.4751   -0.6596    0.0000 H       1  UNL1        0.0603
     57 H           9.3668    0.8170    0.0000 H       1  UNL1        0.0311
     58 H           6.5746    2.1403    0.0000 H       1  UNL1        0.0421
     59 H           8.8235   -0.3245    0.0000 H       1  UNL1        0.0293
     60 H           9.2355    0.3578    0.0000 H       1  UNL1        0.0293
     61 H           5.1274    1.9722    0.0000 H       1  UNL1        0.0770
     62 H           5.3931   -1.1133    0.0000 H       1  UNL1        0.0318
     63 H           5.7991   -1.7969    0.0000 H       1  UNL1        0.0318
     64 H           6.3557    1.3440    0.0000 H       1  UNL1        0.0236
     65 H           5.5045    1.1338    0.0000 H       1  UNL1        0.0236
     66 H           5.7147    0.2826    0.0000 H       1  UNL1        0.0236
     67 H           9.7554    1.1616    0.0000 H       1  UNL1        0.0269
     68 H          10.1759    1.8402    0.0000 H       1  UNL1        0.0269
     69 H           7.2511    2.8267    0.0000 H       1  UNL1        0.0239
     70 H           6.3999    2.6164    0.0000 H       1  UNL1        0.0239
     71 H           6.6101    1.7652    0.0000 H       1  UNL1        0.0239
     72 H           6.3311   -2.0144    0.0000 H       1  UNL1        0.0911
     73 H           9.2417    3.6310    0.0000 H       1  UNL1        0.0815
     74 H          10.1987    2.6693    0.0000 H       1  UNL1        0.0305
     75 H           9.8159    3.3698    0.0000 H       1  UNL1        0.0305
     76 H           4.0455   -0.2286    0.0000 H       1  UNL1        0.0259
     77 H           4.2590   -1.0790    0.0000 H       1  UNL1        0.0259
     78 H           5.1094   -0.8655    0.0000 H       1  UNL1        0.0259
     79 H           3.7728   -0.2052    0.0000 H       1  UNL1        0.2103
     80 H           6.0010   -2.5827    0.0000 H       1  UNL1        0.0938
     81 H           5.7865    4.6672    0.0000 H       1  UNL1        0.0662
     82 H           4.3083    2.2822    0.0000 H       1  UNL1        0.0626
     83 H           6.0010   -4.8227    0.0000 H       1  UNL1        0.0671
     84 H           2.8486    2.4429    0.0000 H       1  UNL1        0.0342
     85 H           1.9966    2.2360    0.0000 H       1  UNL1        0.0342
     86 H           2.2035    1.3839    0.0000 H       1  UNL1        0.0342
     87 H           4.5981   -5.0127    0.0000 H       1  UNL1        0.0648
     88 H           4.2690   -2.5827    0.0000 H       1  UNL1        0.0647
     89 H           2.9314    3.1357    0.0000 H       1  UNL1        0.0655
     90 H           3.7320   -3.8927    0.0000 H       1  UNL1        0.0647
     91 H          10.2247    5.8067    0.0000 H       1  UNL1        0.0342
     92 H           9.6146    6.4365    0.0000 H       1  UNL1        0.0342
     93 H           8.9849    5.8264    0.0000 H       1  UNL1        0.0342
     94 H           6.8671   -5.3227    0.0000 H       1  UNL1        0.2101
     95 H           3.8015   -2.2278    0.0000 H       1  UNL1        0.0584
     96 H           3.0044   -2.2278    0.0000 H       1  UNL1        0.0584
     97 H           4.5981   -6.0127    0.0000 H       1  UNL1        0.2100
     98 H           3.3741    6.6149    0.0000 H       1  UNL1        0.1166
     99 H           2.6431    6.2228    0.0000 H       1  UNL1        0.1166
    100 H           3.4030   -5.3227    0.0000 H       1  UNL1        0.2100
    101 H           2.0000   -2.8927    0.0000 H       1  UNL1        0.2095
@<TRIPOS>BOND
     1     1    21    1
     2     1    32    1
     3    24     2    1
     4     2    79    1
     5    26     3    1
     6     3    38    1
     7    32     4    1
     8    39     4    1
     9     5    30    2
    10    33     6    1
    11     6    43    1
    12     7    36    2
    13     8    39    1
    14     8    47    1
    15     9    38    2
    16    42    10    1
    17    10    94    1
    18    11    43    2
    19    12    46    1
    20    12    53    1
    21    45    13    1
    22    13    97    1
    23    14    50    1
    24    14    53    1
    25    49    15    1
    26    15   100    1
    27    16    52    1
    28    16   101    1
    29    17    18    1
    30    17    20    1
    31    17    21    1
    32    17    28    1
    33    18    19    1
    34    18    23    1
    35    18    54    1
    36    19    22    1
    37    19    30    1
    38    19    31    1
    39    20    24    1
    40    20    27    1
    41    20    55    1
    42    21    25    1
    43    21    56    1
    44    22    25    1
    45    22    29    1
    46    22    57    1
    47    23    26    1
    48    23    36    1
    49    23    58    1
    50    24    26    1
    51    24    35    1
    52    25    59    1
    53    25    60    1
    54    26    61    1
    55    27    32    1
    56    27    62    1
    57    27    63    1
    58    28    64    1
    59    28    65    1
    60    28    66    1
    61    29    34    1
    62    29    67    1
    63    29    68    1
    64    30    33    1
    65    31    69    1
    66    31    70    1
    67    31    71    1
    68    32    72    1
    69    33    34    1
    70    33    73    1
    71    34    74    1
    72    34    75    1
    73    35    76    1
    74    35    77    1
    75    35    78    1
    76    36    37    1
    77    37    40   ar
    78    37    41   ar
    79    38    44    1
    80    39    42    1
    81    39    80    1
    82    40    46   ar
    83    40    81    1
    84    41    48   ar
    85    41    82    1
    86    42    45    1
    87    42    83    1
    88    43    51    1
    89    44    84    1
    90    44    85    1
    91    44    86    1
    92    45    49    1
    93    45    87    1
    94    46    50   ar
    95    47    49    1
    96    47    52    1
    97    47    88    1
    98    48    50   ar
    99    48    89    1
   100    49    90    1
   101    51    91    1
   102    51    92    1
   103    51    93    1
   104    52    95    1
   105    52    96    1
   106    53    98    1
   107    53    99    1
