@<TRIPOS>MOLECULE
IMPHY009538
 55 58 0 0 0
SMALL
GASTEIGER

@<TRIPOS>ATOM
      1 O           5.1854   -3.6276    0.0000 O.3     1  UNL1       -0.3868
      2 O           3.4075   -3.6171    0.0000 O.3     1  UNL1       -0.3946
      3 O           2.5357   -1.0655    0.0000 O.3     1  UNL1       -0.4804
      4 O           8.7460   -0.7883    0.0000 O.3     1  UNL1       -0.4526
      5 O           8.7460   -2.3977    0.0000 O.3     1  UNL1       -0.4526
      6 O           3.4075    0.4312    0.0000 O.2     1  UNL1       -0.2507
      7 O           3.4766    2.4615    0.0000 O.3     1  UNL1       -0.4913
      8 O           6.9405    2.4214    0.0000 O.3     1  UNL1       -0.4913
      9 O           5.2201    3.4414    0.0000 O.3     1  UNL1       -0.4885
     10 C           4.2678   -1.0722    0.0000 C.3     1  UNL1        0.0746
     11 C           4.2678   -2.1138    0.0000 C.3     1  UNL1        0.0261
     12 C           5.1738   -0.5583    0.0000 C.3     1  UNL1        0.0232
     13 C           5.1738   -2.6276    0.0000 C.3     1  UNL1        0.0862
     14 C           6.0678   -1.0930    0.0000 C.ar    1  UNL1       -0.0299
     15 C           6.0678   -2.0930    0.0000 C.ar    1  UNL1       -0.0113
     16 C           3.4037   -2.6171    0.0000 C.3     1  UNL1        0.0505
     17 C           5.1854    0.4416    0.0000 C.ar    1  UNL1       -0.0320
     18 C           3.4037   -0.5688    0.0000 C.2     1  UNL1        0.3092
     19 C           6.9338   -0.5930    0.0000 C.ar    1  UNL1       -0.0120
     20 C           6.9338   -2.5930    0.0000 C.ar    1  UNL1       -0.0102
     21 C           7.7998   -1.0930    0.0000 C.ar    1  UNL1        0.1665
     22 C           7.7998   -2.0930    0.0000 C.ar    1  UNL1        0.1666
     23 C           6.0572    0.9316    0.0000 C.ar    1  UNL1       -0.0123
     24 C           4.3252    0.9516    0.0000 C.ar    1  UNL1       -0.0123
     25 C           4.3368    1.9515    0.0000 C.ar    1  UNL1        0.1654
     26 C           6.0687    1.9315    0.0000 C.ar    1  UNL1        0.1654
     27 C           9.3297   -1.5930    0.0000 C.3     1  UNL1        0.2332
     28 C           5.2085    2.4415    0.0000 C.ar    1  UNL1        0.2035
     29 C           3.4882    3.4614    0.0000 C.3     1  UNL1        0.0790
     30 C           7.8006    1.9115    0.0000 C.3     1  UNL1        0.0790
     31 C           6.0918    3.9314    0.0000 C.3     1  UNL1        0.0791
     32 H           3.7302   -1.3811    0.0000 H       1  UNL1        0.0427
     33 H           3.7302   -1.8048    0.0000 H       1  UNL1        0.0359
     34 H           4.6399   -0.2432    0.0000 H       1  UNL1        0.0405
     35 H           5.7149   -2.9304    0.0000 H       1  UNL1        0.0647
     36 H           3.1894   -2.0354    0.0000 H       1  UNL1        0.0561
     37 H           2.7935   -2.7272    0.0000 H       1  UNL1        0.0561
     38 H           6.9338    0.0270    0.0000 H       1  UNL1        0.0658
     39 H           6.9338   -3.2130    0.0000 H       1  UNL1        0.0659
     40 H           5.7259   -3.9314    0.0000 H       1  UNL1        0.2102
     41 H           6.5905    0.6154    0.0000 H       1  UNL1        0.0658
     42 H           3.7847    0.6478    0.0000 H       1  UNL1        0.0658
     43 H           2.8718   -3.9292    0.0000 H       1  UNL1        0.2094
     44 H           2.0000   -0.7534    0.0000 H       1  UNL1        0.2951
     45 H           9.7905   -2.0077    0.0000 H       1  UNL1        0.1166
     46 H           9.7905   -1.1783    0.0000 H       1  UNL1        0.1166
     47 H           4.1081    3.4543    0.0000 H       1  UNL1        0.0660
     48 H           3.4953    4.0814    0.0000 H       1  UNL1        0.0660
     49 H           2.8682    3.4686    0.0000 H       1  UNL1        0.0660
     50 H           7.4845    1.3782    0.0000 H       1  UNL1        0.0660
     51 H           8.3340    1.5953    0.0000 H       1  UNL1        0.0660
     52 H           8.1168    2.4448    0.0000 H       1  UNL1        0.0660
     53 H           6.3956    3.3909    0.0000 H       1  UNL1        0.0660
     54 H           6.6323    4.2351    0.0000 H       1  UNL1        0.0660
     55 H           5.7881    4.4718    0.0000 H       1  UNL1        0.0660
@<TRIPOS>BOND
     1    13     1    1
     2     1    40    1
     3     2    16    1
     4     2    43    1
     5     3    18    1
     6     3    44    1
     7     4    21    1
     8     4    27    1
     9     5    22    1
    10     5    27    1
    11     6    18    2
    12     7    25    1
    13     7    29    1
    14     8    26    1
    15     8    30    1
    16     9    28    1
    17     9    31    1
    18    10    11    1
    19    10    12    1
    20    10    18    1
    21    10    32    1
    22    11    13    1
    23    11    16    1
    24    11    33    1
    25    12    14    1
    26    12    17    1
    27    12    34    1
    28    13    15    1
    29    13    35    1
    30    14    15   ar
    31    14    19   ar
    32    15    20   ar
    33    16    36    1
    34    16    37    1
    35    17    23   ar
    36    17    24   ar
    37    19    21   ar
    38    19    38    1
    39    20    22   ar
    40    20    39    1
    41    21    22   ar
    42    23    26   ar
    43    23    41    1
    44    24    25   ar
    45    24    42    1
    46    25    28   ar
    47    26    28   ar
    48    27    45    1
    49    27    46    1
    50    29    47    1
    51    29    48    1
    52    29    49    1
    53    30    50    1
    54    30    51    1
    55    30    52    1
    56    31    53    1
    57    31    54    1
    58    31    55    1
