@<TRIPOS>MOLECULE
IMPHY001274
 52 55 0 0 0
SMALL
GASTEIGER

@<TRIPOS>ATOM
      1 O           5.1350   -1.2857    0.0000 O.3     1  UNL1       -0.3313
      2 O           6.8671   -1.2857    0.0000 O.3     1  UNL1       -0.4515
      3 O           5.1350   -4.2857    0.0000 O.3     1  UNL1       -0.3864
      4 O           3.4030   -3.2857    0.0000 O.3     1  UNL1       -0.3865
      5 O           6.8671   -3.2857    0.0000 O.3     1  UNL1       -0.3829
      6 O           2.5369   -1.7857    0.0000 O.3     1  UNL1       -0.3924
      7 O           7.7331    1.2143    0.0000 O.2     1  UNL1       -0.1997
      8 O           4.2308    1.2112    0.0000 O.3     1  UNL1       -0.5057
      9 O           5.9889    4.2836    0.0000 O.3     1  UNL1       -0.5063
     10 O          11.1972   -1.7857    0.0000 O.3     1  UNL1       -0.5068
     11 C           5.1350   -3.2857    0.0000 C.3     1  UNL1        0.1152
     12 C           4.2690   -2.7857    0.0000 C.3     1  UNL1        0.1120
     13 C           6.0010   -2.7857    0.0000 C.3     1  UNL1        0.1454
     14 C           4.2690   -1.7857    0.0000 C.3     1  UNL1        0.1140
     15 C           6.0010   -1.7857    0.0000 C.3     1  UNL1        0.2312
     16 C           3.4030   -1.2857    0.0000 C.3     1  UNL1        0.0731
     17 C           6.8671   -0.2857    0.0000 C.ar    1  UNL1        0.2288
     18 C           7.7331    0.2143    0.0000 C.ar    1  UNL1        0.4045
     19 C           6.0010    0.2143    0.0000 C.ar    1  UNL1        0.0093
     20 C           6.0010    1.2143    0.0000 C.ar    1  UNL1        0.1241
     21 C           6.8671    1.7143    0.0000 C.ar    1  UNL1        0.3708
     22 C           8.5991   -0.2857    0.0000 C.ar    1  UNL1        0.0830
     23 C           5.0910    1.7212    0.0000 C.ar    1  UNL1        0.1366
     24 C           6.8831    2.7558    0.0000 C.ar    1  UNL1        0.0847
     25 C           8.5991   -1.2857    0.0000 C.ar    1  UNL1       -0.0420
     26 C           9.4651    0.2143    0.0000 C.ar    1  UNL1       -0.0420
     27 C           5.0830    2.7628    0.0000 C.ar    1  UNL1        0.0225
     28 C           5.9851    3.2836    0.0000 C.ar    1  UNL1        0.1293
     29 C           9.4651   -1.7857    0.0000 C.ar    1  UNL1       -0.0193
     30 C          10.3312   -0.2857    0.0000 C.ar    1  UNL1       -0.0193
     31 C          10.3312   -1.2857    0.0000 C.ar    1  UNL1        0.1169
     32 H           5.6720   -3.5957    0.0000 H       1  UNL1        0.0648
     33 H           4.2690   -3.4057    0.0000 H       1  UNL1        0.0647
     34 H           6.5380   -2.4757    0.0000 H       1  UNL1        0.0683
     35 H           4.2690   -1.1657    0.0000 H       1  UNL1        0.0647
     36 H           6.0010   -1.1657    0.0000 H       1  UNL1        0.1084
     37 H           3.8015   -0.8107    0.0000 H       1  UNL1        0.0584
     38 H           3.0044   -0.8107    0.0000 H       1  UNL1        0.0584
     39 H           4.5981   -4.5957    0.0000 H       1  UNL1        0.2100
     40 H           3.4030   -3.9057    0.0000 H       1  UNL1        0.2100
     41 H           6.8671   -3.9057    0.0000 H       1  UNL1        0.2102
     42 H           2.0000   -1.4757    0.0000 H       1  UNL1        0.2095
     43 H           5.4641   -0.0957    0.0000 H       1  UNL1        0.0667
     44 H           7.4236    3.0596    0.0000 H       1  UNL1        0.0749
     45 H           8.0622   -1.5957    0.0000 H       1  UNL1        0.0628
     46 H           9.4651    0.8343    0.0000 H       1  UNL1        0.0628
     47 H           4.5449    3.0707    0.0000 H       1  UNL1        0.0691
     48 H           9.4651   -2.4057    0.0000 H       1  UNL1        0.0654
     49 H          10.8681    0.0243    0.0000 H       1  UNL1        0.0654
     50 H           3.6904    1.5150    0.0000 H       1  UNL1        0.2922
     51 H           5.4532    4.5957    0.0000 H       1  UNL1        0.2921
     52 H          11.7341   -1.4757    0.0000 H       1  UNL1        0.2921
@<TRIPOS>UNITY_ATOM_ATTR
7 1
charge 1
@<TRIPOS>BOND
     1     1    14    1
     2     1    15    1
     3    15     2    1
     4     2    17    1
     5    11     3    1
     6     3    39    1
     7    12     4    1
     8     4    40    1
     9    13     5    1
    10     5    41    1
    11     6    16    1
    12     6    42    1
    13     7    18   ar
    14     7    21   ar
    15     8    23    1
    16     8    50    1
    17     9    28    1
    18     9    51    1
    19    10    31    1
    20    10    52    1
    21    11    12    1
    22    11    13    1
    23    11    32    1
    24    12    14    1
    25    12    33    1
    26    13    15    1
    27    13    34    1
    28    14    16    1
    29    14    35    1
    30    15    36    1
    31    16    37    1
    32    16    38    1
    33    17    18   ar
    34    17    19   ar
    35    18    22    1
    36    19    20   ar
    37    19    43    1
    38    20    21   ar
    39    20    23   ar
    40    21    24   ar
    41    22    25   ar
    42    22    26   ar
    43    23    27   ar
    44    24    28   ar
    45    24    44    1
    46    25    29   ar
    47    25    45    1
    48    26    30   ar
    49    26    46    1
    50    27    28   ar
    51    27    47    1
    52    29    31   ar
    53    29    48    1
    54    30    31   ar
    55    30    49    1
