@<TRIPOS>MOLECULE
IMPHY013567
 77 80 0 0 0
SMALL
GASTEIGER

@<TRIPOS>ATOM
      1 C           6.5251   -0.6074    0.0000 C.3     1  UNL1       -0.0256
      2 C           6.5251   -1.6074    0.0000 C.3     1  UNL1       -0.0322
      3 C           5.6591   -2.1074    0.0000 C.3     1  UNL1       -0.0338
      4 C           4.7931   -1.6074    0.0000 C.3     1  UNL1       -0.0288
      5 C           7.4714   -0.3027    0.0000 C.3     1  UNL1       -0.0294
      6 C           5.6591   -0.1074    0.0000 C.3     1  UNL1       -0.0468
      7 C           3.8831   -2.1143    0.0000 C.3     1  UNL1       -0.0080
      8 C           7.4714   -1.9122    0.0000 C.3     1  UNL1       -0.0492
      9 C           4.7931   -0.6074    0.0000 C.3     1  UNL1       -0.0487
     10 C           8.0550   -1.1074    0.0000 C.3     1  UNL1       -0.0489
     11 C           5.6752   -3.1489    0.0000 C.3     1  UNL1       -0.0460
     12 C           6.5251    0.3926    0.0000 C.3     1  UNL1       -0.0590
     13 C           3.8751   -3.1559    0.0000 C.2     1  UNL1       -0.0673
     14 C           7.7820    0.6478    0.0000 C.3     1  UNL1       -0.0224
     15 C           4.7771   -3.6767    0.0000 C.3     1  UNL1       -0.0309
     16 C           2.9562   -1.5502    0.0000 C.3     1  UNL1       -0.0434
     17 C           3.8908   -1.1143    0.0000 C.3     1  UNL1       -0.0556
     18 C           2.0084   -2.0781    0.0000 C.3     1  UNL1       -0.0488
     19 C           2.9396   -3.7056    0.0000 C.2     1  UNL1       -0.0842
     20 C           2.0000   -3.1631    0.0000 C.3     1  UNL1       -0.0345
     21 C           7.1142    1.3921    0.0000 C.3     1  UNL1       -0.0587
     22 C           8.7605    0.8540    0.0000 C.2     1  UNL1       -0.0845
     23 C           9.0712    1.8046    0.0000 C.2     1  UNL1       -0.0843
     24 C          10.0497    2.0108    0.0000 C.3     1  UNL1       -0.0208
     25 C          10.3604    2.9613    0.0000 C.3     1  UNL1       -0.0405
     26 C          10.7175    1.2665    0.0000 C.3     1  UNL1       -0.0494
     27 C          11.3389    3.1675    0.0000 C.3     1  UNL1       -0.0621
     28 C           9.6925    3.7056    0.0000 C.3     1  UNL1       -0.0621
     29 C          11.6960    1.4727    0.0000 C.3     1  UNL1       -0.0647
     30 H           6.6151   -2.4527    0.0000 H       1  UNL1        0.0309
     31 H           6.3985   -2.5267    0.0000 H       1  UNL1        0.0307
     32 H           5.5292   -1.1824    0.0000 H       1  UNL1        0.0312
     33 H           8.3111   -0.1708    0.0000 H       1  UNL1        0.0312
     34 H           6.0576    0.3675    0.0000 H       1  UNL1        0.0271
     35 H           5.2606    0.3675    0.0000 H       1  UNL1        0.0271
     36 H           7.2203   -2.4791    0.0000 H       1  UNL1        0.0268
     37 H           8.0087   -2.2214    0.0000 H       1  UNL1        0.0268
     38 H           4.5810   -0.0248    0.0000 H       1  UNL1        0.0268
     39 H           4.1825   -0.7151    0.0000 H       1  UNL1        0.0268
     40 H           8.5158   -1.5222    0.0000 H       1  UNL1        0.0268
     41 H           8.5158   -0.6927    0.0000 H       1  UNL1        0.0268
     42 H           5.8932   -3.7293    0.0000 H       1  UNL1        0.0271
     43 H           6.2843   -3.0334    0.0000 H       1  UNL1        0.0271
     44 H           7.1451    0.3926    0.0000 H       1  UNL1        0.0235
     45 H           6.5251    1.0126    0.0000 H       1  UNL1        0.0235
     46 H           5.9051    0.3926    0.0000 H       1  UNL1        0.0235
     47 H           7.9746    1.2371    0.0000 H       1  UNL1        0.0343
     48 H           4.3798   -4.1527    0.0000 H       1  UNL1        0.0310
     49 H           5.1781   -4.1496    0.0000 H       1  UNL1        0.0310
     50 H           3.3645   -1.0835    0.0000 H       1  UNL1        0.0274
     51 H           2.5663   -1.0682    0.0000 H       1  UNL1        0.0274
     52 H           4.5108   -1.1191    0.0000 H       1  UNL1        0.0238
     53 H           3.8956   -0.4943    0.0000 H       1  UNL1        0.0238
     54 H           3.2708   -1.1095    0.0000 H       1  UNL1        0.0238
     55 H           1.8038   -1.4929    0.0000 H       1  UNL1        0.0268
     56 H           1.3967   -2.1795    0.0000 H       1  UNL1        0.0268
     57 H           2.9420   -4.3256    0.0000 H       1  UNL1        0.0572
     58 H           1.3900   -3.0523    0.0000 H       1  UNL1        0.0307
     59 H           1.7864   -3.7452    0.0000 H       1  UNL1        0.0307
     60 H           7.5756    1.8062    0.0000 H       1  UNL1        0.0235
     61 H           6.7001    1.8536    0.0000 H       1  UNL1        0.0235
     62 H           6.6527    0.9781    0.0000 H       1  UNL1        0.0235
     63 H           9.1746    0.3926    0.0000 H       1  UNL1        0.0572
     64 H           8.6571    2.2660    0.0000 H       1  UNL1        0.0572
     65 H           9.8571    1.4215    0.0000 H       1  UNL1        0.0345
     66 H          10.5530    3.5506    0.0000 H       1  UNL1        0.0301
     67 H          10.1912    0.9388    0.0000 H       1  UNL1        0.0268
     68 H          10.9488    0.6912    0.0000 H       1  UNL1        0.0268
     69 H          11.4667    2.5608    0.0000 H       1  UNL1        0.0233
     70 H          11.9455    3.2954    0.0000 H       1  UNL1        0.0233
     71 H          11.2110    3.7742    0.0000 H       1  UNL1        0.0233
     72 H          10.1540    4.1197    0.0000 H       1  UNL1        0.0233
     73 H           9.2784    4.1671    0.0000 H       1  UNL1        0.0233
     74 H           9.2310    3.2915    0.0000 H       1  UNL1        0.0233
     75 H          11.8239    0.8660    0.0000 H       1  UNL1        0.0230
     76 H          12.3027    1.6006    0.0000 H       1  UNL1        0.0230
     77 H          11.5682    2.0794    0.0000 H       1  UNL1        0.0230
@<TRIPOS>BOND
     1     1     2    1
     2     1     5    1
     3     1     6    1
     4     1    12    1
     5     2     3    1
     6     2     8    1
     7     2    30    1
     8     3     4    1
     9     3    11    1
    10     3    31    1
    11     4     7    1
    12     4     9    1
    13     4    32    1
    14     5    10    1
    15     5    14    1
    16     5    33    1
    17     6     9    1
    18     6    34    1
    19     6    35    1
    20     7    13    1
    21     7    16    1
    22     7    17    1
    23     8    10    1
    24     8    36    1
    25     8    37    1
    26     9    38    1
    27     9    39    1
    28    10    40    1
    29    10    41    1
    30    11    15    1
    31    11    42    1
    32    11    43    1
    33    12    44    1
    34    12    45    1
    35    12    46    1
    36    13    15    1
    37    13    19    2
    38    14    21    1
    39    14    22    1
    40    14    47    1
    41    15    48    1
    42    15    49    1
    43    16    18    1
    44    16    50    1
    45    16    51    1
    46    17    52    1
    47    17    53    1
    48    17    54    1
    49    18    20    1
    50    18    55    1
    51    18    56    1
    52    19    20    1
    53    19    57    1
    54    20    58    1
    55    20    59    1
    56    21    60    1
    57    21    61    1
    58    21    62    1
    59    22    23    2
    60    22    63    1
    61    23    24    1
    62    23    64    1
    63    24    25    1
    64    24    26    1
    65    24    65    1
    66    25    27    1
    67    25    28    1
    68    25    66    1
    69    26    29    1
    70    26    67    1
    71    26    68    1
    72    27    69    1
    73    27    70    1
    74    27    71    1
    75    28    72    1
    76    28    73    1
    77    28    74    1
    78    29    75    1
    79    29    76    1
    80    29    77    1
