@<TRIPOS>MOLECULE
IMPHY001498
 23 23 0 0 0
SMALL
GASTEIGER

@<TRIPOS>ATOM
      1 O           4.5981    2.1900    0.0000 O.3     1  UNL1       -0.3880
      2 C           3.7320    1.6900    0.0000 C.3     1  UNL1        0.0709
      3 C           2.8660   -0.8100    0.0000 C.ar    1  UNL1       -0.0252
      4 C           3.7320    0.6900    0.0000 C.2     1  UNL1       -0.0556
      5 C           2.8660    0.1900    0.0000 C.2     1  UNL1       -0.0561
      6 C           2.8660    2.1900    0.0000 C.3     1  UNL1       -0.0353
      7 C           2.0000   -1.3100    0.0000 C.ar    1  UNL1       -0.0546
      8 C           3.7320   -1.3100    0.0000 C.ar    1  UNL1       -0.0546
      9 C           2.0000   -2.3100    0.0000 C.ar    1  UNL1       -0.0612
     10 C           3.7320   -2.3100    0.0000 C.ar    1  UNL1       -0.0612
     11 C           2.8660   -2.8100    0.0000 C.ar    1  UNL1       -0.0617
     12 H           3.7320    2.3100    0.0000 H       1  UNL1        0.0635
     13 H           4.2690    0.3800    0.0000 H       1  UNL1        0.0598
     14 H           2.3291    0.5000    0.0000 H       1  UNL1        0.0621
     15 H           3.1760    2.7269    0.0000 H       1  UNL1        0.0258
     16 H           2.3291    2.5000    0.0000 H       1  UNL1        0.0258
     17 H           2.5560    1.6531    0.0000 H       1  UNL1        0.0258
     18 H           1.4631   -1.0000    0.0000 H       1  UNL1        0.0623
     19 H           4.2690   -1.0000    0.0000 H       1  UNL1        0.0623
     20 H           1.4631   -2.6200    0.0000 H       1  UNL1        0.0618
     21 H           4.2690   -2.6200    0.0000 H       1  UNL1        0.0618
     22 H           2.8660   -3.4300    0.0000 H       1  UNL1        0.0618
     23 H           4.5981    2.8100    0.0000 H       1  UNL1        0.2102
@<TRIPOS>BOND
     1     1     2    1
     2     1    23    1
     3     2     4    1
     4     2     6    1
     5     2    12    1
     6     3     5    1
     7     3     7   ar
     8     3     8   ar
     9     4     5    2
    10     4    13    1
    11     5    14    1
    12     6    15    1
    13     6    16    1
    14     6    17    1
    15     7     9   ar
    16     7    18    1
    17     8    10   ar
    18     8    19    1
    19     9    11   ar
    20     9    20    1
    21    10    11   ar
    22    10    21    1
    23    11    22    1
