@<TRIPOS>MOLECULE
IMPHY007813
 40 39 0 0 0
SMALL
GASTEIGER

@<TRIPOS>ATOM
      1 O           3.4543    0.8910    0.0000 O.3     1  UNL1       -0.4451
      2 O           4.3392    7.7082    0.0000 O.3     2  UNL2       -0.3898
      3 O           1.4863    0.1916    0.0000 O.3     1  UNL1       -0.3890
      4 O           2.3665    3.2388    0.0000 O.2     1  UNL1       -0.5042
      5 O           4.5421    3.2388    0.0000 O.2     1  UNL1       -0.4988
      6 O           0.0000    1.5298    0.0000 O.co2   1  UNL1       -0.8541
      7 O           5.2143    1.1697    0.0000 O.2     1  UNL1       -0.2414
      8 N           1.7412    7.2082    0.0000 N.4     2  UNL2        0.2385
      9 C           2.6072    7.7082    0.0000 C.3     2  UNL2       -0.0071
     10 C           0.8751    6.7082    0.0000 C.3     2  UNL2       -0.0417
     11 C           1.2412    8.0742    0.0000 C.3     2  UNL2       -0.0417
     12 C           2.2412    6.3422    0.0000 C.3     2  UNL2       -0.0417
     13 C           3.4732    7.2082    0.0000 C.3     2  UNL2        0.0841
     14 C           2.6453    1.4788    0.0000 C.3     1  UNL1        0.1878
     15 C           1.6942    1.1697    0.0000 C.3     1  UNL1        0.0844
     16 C           2.9543    2.4298    0.0000 C.2     1  UNL1        0.1862
     17 C           0.9511    1.8389    0.0000 C.3     1  UNL1       -0.1089
     18 C           3.9543    2.4298    0.0000 C.2     1  UNL1        0.2437
     19 C           4.2633    1.4788    0.0000 C.2     1  UNL1        0.3783
     20 H           3.0057    8.1831    0.0000 H       2  UNL2        0.0837
     21 H           2.2086    8.1831    0.0000 H       2  UNL2        0.0837
     22 H           1.7781    8.3842    0.0000 H       2  UNL2        0.0778
     23 H           0.9311    8.6112    0.0000 H       2  UNL2        0.0778
     24 H           0.7042    7.7642    0.0000 H       2  UNL2        0.0778
     25 H           0.5651    7.2451    0.0000 H       2  UNL2        0.0778
     26 H           0.3382    6.3982    0.0000 H       2  UNL2        0.0778
     27 H           1.1851    6.1712    0.0000 H       2  UNL2        0.0778
     28 H           1.7042    6.0322    0.0000 H       2  UNL2        0.0778
     29 H           2.5511    5.8052    0.0000 H       2  UNL2        0.0778
     30 H           2.7781    6.6522    0.0000 H       2  UNL2        0.0778
     31 H           3.0747    6.7332    0.0000 H       2  UNL2        0.0610
     32 H           3.8717    6.7332    0.0000 H       2  UNL2        0.0610
     33 H           2.5483    0.8664    0.0000 H       1  UNL1        0.0844
     34 H           1.1046    0.9781    0.0000 H       1  UNL1        0.0621
     35 H           1.4396    2.2206    0.0000 H       1  UNL1        0.0101
     36 H           0.6600    2.3863    0.0000 H       1  UNL1        0.0101
     37 H           4.8762    7.3982    0.0000 H       2  UNL2        0.2096
     38 H           0.8966    0.0000    0.0000 H       1  UNL1        0.2099
     39 H           2.6187    3.8052    0.0000 H       1  UNL1        0.2920
     40 H           5.1587    3.1740    0.0000 H       1  UNL1        0.2925
@<TRIPOS>UNITY_ATOM_ATTR
6 1
charge -1
8 1
charge 1
@<TRIPOS>BOND
     1     1    14    1
     2     1    19    1
     3     2    13    1
     4     2    37    1
     5    15     3    1
     6     3    38    1
     7     4    16    1
     8     4    39    1
     9     5    18    1
    10     5    40    1
    11     6    17    1
    12     7    19    2
    13     8     9    1
    14     8    10    1
    15     8    11    1
    16     8    12    1
    17     9    13    1
    18     9    20    1
    19     9    21    1
    20    10    25    1
    21    10    26    1
    22    10    27    1
    23    11    22    1
    24    11    23    1
    25    11    24    1
    26    12    28    1
    27    12    29    1
    28    12    30    1
    29    13    31    1
    30    13    32    1
    31    14    15    1
    32    14    16    1
    33    14    33    1
    34    15    17    1
    35    15    34    1
    36    16    18    2
    37    17    35    1
    38    17    36    1
    39    18    19    1
