@<TRIPOS>MOLECULE
IMPHY013521
 29 30 0 0 0
SMALL
GASTEIGER

@<TRIPOS>ATOM
      1 S           6.1974    0.5866    0.0000 S.2     1  UNL1       -0.0843
      2 S           8.2665   -0.0856    0.0000 S.2     1  UNL1       -0.0794
      3 O           2.7431    1.2255    0.0000 O.3     1  UNL1       -0.4622
      4 O           4.2294   -0.1127    0.0000 O.2     1  UNL1       -0.2791
      5 O           3.9021    2.5127    0.0000 O.2     1  UNL1       -0.2413
      6 C           7.0064    1.1744    0.0000 C.ar    1  UNL1        0.0266
      7 C           7.9575    0.8654    0.0000 C.ar    1  UNL1        0.0271
      8 C           6.6974    2.1255    0.0000 C.ar    1  UNL1       -0.0457
      9 C           5.3884    1.1744    0.0000 C.ar    1  UNL1        0.0666
     10 C           5.6974    2.1255    0.0000 C.ar    1  UNL1       -0.0430
     11 C           8.7665    1.4532    0.0000 C.ar    1  UNL1       -0.0452
     12 C           9.5755    0.8654    0.0000 C.ar    1  UNL1       -0.0386
     13 C           9.2665   -0.0856    0.0000 C.ar    1  UNL1        0.0625
     14 C           4.4374    0.8654    0.0000 C.2     1  UNL1        0.2758
     15 C           3.6942    1.5346    0.0000 C.2     1  UNL1        0.3802
     16 C           9.8543   -0.8947    0.0000 C.1     1  UNL1       -0.0594
     17 C           2.0000    1.8947    0.0000 C.3     1  UNL1        0.0821
     18 C          10.4421   -1.7037    0.0000 C.1     1  UNL1       -0.0998
     19 C          11.0299   -2.5127    0.0000 C.3     1  UNL1       -0.0022
     20 H           7.0618    2.6271    0.0000 H       1  UNL1        0.0629
     21 H           5.3330    2.6271    0.0000 H       1  UNL1        0.0630
     22 H           8.7665    2.0732    0.0000 H       1  UNL1        0.0629
     23 H          10.1652    1.0570    0.0000 H       1  UNL1        0.0635
     24 H           2.4149    2.3554    0.0000 H       1  UNL1        0.0661
     25 H           1.5392    2.3095    0.0000 H       1  UNL1        0.0661
     26 H           1.5851    1.4339    0.0000 H       1  UNL1        0.0661
     27 H          10.5283   -2.8771    0.0000 H       1  UNL1        0.0362
     28 H          11.3943   -3.0143    0.0000 H       1  UNL1        0.0362
     29 H          11.5315   -2.1483    0.0000 H       1  UNL1        0.0362
@<TRIPOS>BOND
     1     1     6   ar
     2     1     9   ar
     3     2     7   ar
     4     2    13   ar
     5     3    15    1
     6     3    17    1
     7     4    14    2
     8     5    15    2
     9     6     7    1
    10     6     8   ar
    11     7    11   ar
    12     8    10   ar
    13     8    20    1
    14     9    10   ar
    15     9    14    1
    16    10    21    1
    17    11    12   ar
    18    11    22    1
    19    12    13   ar
    20    12    23    1
    21    13    16    1
    22    14    15    1
    23    16    18    3
    24    17    24    1
    25    17    25    1
    26    17    26    1
    27    18    19    1
    28    19    27    1
    29    19    28    1
    30    19    29    1
