@<TRIPOS>MOLECULE
IMPHY005243
 60 64 0 0 0
SMALL
GASTEIGER

@<TRIPOS>ATOM
      1 O           8.2894   -0.1180    0.0000 O.3     1  UNL1       -0.3869
      2 O           2.5405    0.9119    0.0000 O.3     1  UNL1       -0.3937
      3 N           5.1326    0.3819    0.0000 N.3     1  UNL1       -0.2991
      4 C           7.6204   -0.0178    0.0000 C.3     1  UNL1       -0.0097
      5 C           8.5304    0.4891    0.0000 C.3     1  UNL1       -0.0251
      6 C           9.3965   -0.0109    0.0000 C.3     1  UNL1        0.0040
      7 C           7.6124   -1.0594    0.0000 C.3     1  UNL1       -0.0274
      8 C           6.6770   -1.6091    0.0000 C.3     1  UNL1       -0.0159
      9 C           9.4125   -1.0524    0.0000 C.3     1  UNL1       -0.0442
     10 C           8.5145   -1.5802    0.0000 C.3     1  UNL1       -0.0485
     11 C           8.5304    1.4891    0.0000 C.3     1  UNL1       -0.0424
     12 C           6.6936    0.5463    0.0000 C.3     1  UNL1       -0.0456
     13 C           6.5125    1.0284    0.0000 C.3     1  UNL1        0.0052
     14 C          10.2625    0.4891    0.0000 C.3     1  UNL1       -0.0439
     15 C           9.3965    1.9891    0.0000 C.3     1  UNL1       -0.0174
     16 C           8.9965    0.5891    0.0000 C.3     1  UNL1        0.0821
     17 C           5.7373   -1.0666    0.0000 C.3     1  UNL1       -0.0462
     18 C           5.2275   -1.1390    0.0000 C.3     1  UNL1        0.0047
     19 C          10.2625    1.4891    0.0000 C.3     1  UNL1       -0.0458
     20 C           5.7457    0.0184    0.0000 C.3     1  UNL1       -0.0520
     21 C           8.9965    1.3891    0.0000 C.2     1  UNL1       -0.0449
     22 C           6.6808   -2.6091    0.0000 C.3     1  UNL1       -0.0581
     23 C           4.2724    0.8918    0.0000 C.3     1  UNL1        0.0221
     24 C           8.2894    2.0962    0.0000 C.2     1  UNL1       -0.0967
     25 C           3.4007    0.4019    0.0000 C.3     1  UNL1        0.0569
     26 H           7.7943    0.9141    0.0000 H       1  UNL1        0.0313
     27 H           7.6058   -1.9093    0.0000 H       1  UNL1        0.0312
     28 H           9.6306   -1.6328    0.0000 H       1  UNL1        0.0272
     29 H          10.0217   -0.9369    0.0000 H       1  UNL1        0.0272
     30 H           8.1172   -2.0562    0.0000 H       1  UNL1        0.0268
     31 H           8.9154   -2.0531    0.0000 H       1  UNL1        0.0268
     32 H           8.3184    2.0717    0.0000 H       1  UNL1        0.0274
     33 H           7.9198    1.3814    0.0000 H       1  UNL1        0.0274
     34 H           7.1018    1.0130    0.0000 H       1  UNL1        0.0271
     35 H           6.3037    1.0284    0.0000 H       1  UNL1        0.0271
     36 H           6.9911    1.4225    0.0000 H       1  UNL1        0.0432
     37 H           6.1813    1.5526    0.0000 H       1  UNL1        0.0432
     38 H          10.4745   -0.0935    0.0000 H       1  UNL1        0.0272
     39 H          10.8731    0.5967    0.0000 H       1  UNL1        0.0272
     40 H           9.3965    2.8391    0.0000 H       1  UNL1        0.0346
     41 H           9.5898    0.7687    0.0000 H       1  UNL1        0.0646
     42 H           5.1273   -0.9558    0.0000 H       1  UNL1        0.0271
     43 H           5.5238   -1.6486    0.0000 H       1  UNL1        0.0271
     44 H           4.6087   -1.1000    0.0000 H       1  UNL1        0.0432
     45 H           5.1114   -1.7480    0.0000 H       1  UNL1        0.0432
     46 H          10.8731    1.3814    0.0000 H       1  UNL1        0.0271
     47 H          10.4745    2.0717    0.0000 H       1  UNL1        0.0271
     48 H           5.5412    0.6037    0.0000 H       1  UNL1        0.0266
     49 H           5.1340   -0.0830    0.0000 H       1  UNL1        0.0266
     50 H           6.0608   -2.6115    0.0000 H       1  UNL1        0.0236
     51 H           6.6832   -3.2291    0.0000 H       1  UNL1        0.0236
     52 H           7.3008   -2.6067    0.0000 H       1  UNL1        0.0236
     53 H           4.6764    1.3622    0.0000 H       1  UNL1        0.0449
     54 H           3.8794    1.3714    0.0000 H       1  UNL1        0.0449
     55 H           8.4498   -0.7169    0.0000 H       1  UNL1        0.2102
     56 H           8.4498    2.6951    0.0000 H       1  UNL1        0.0535
     57 H           7.6905    1.9357    0.0000 H       1  UNL1        0.0535
     58 H           2.9967   -0.0684    0.0000 H       1  UNL1        0.0570
     59 H           3.7937   -0.0776    0.0000 H       1  UNL1        0.0570
     60 H           2.0000    0.6081    0.0000 H       1  UNL1        0.2095
@<TRIPOS>BOND
     1    16     1    1
     2     1    55    1
     3     2    25    1
     4     2    60    1
     5     3    13    1
     6     3    18    1
     7     3    23    1
     8     4     5    1
     9     4     7    1
    10     4    12    1
    11     4    13    1
    12     5     6    1
    13     5    11    1
    14     5    26    1
    15     6     9    1
    16     6    14    1
    17     6    16    1
    18     7     8    1
    19     7    10    1
    20     7    27    1
    21     8    17    1
    22     8    18    1
    23     8    22    1
    24     9    10    1
    25     9    28    1
    26     9    29    1
    27    10    30    1
    28    10    31    1
    29    11    15    1
    30    11    32    1
    31    11    33    1
    32    12    20    1
    33    12    34    1
    34    12    35    1
    35    13    36    1
    36    13    37    1
    37    14    19    1
    38    14    38    1
    39    14    39    1
    40    15    19    1
    41    15    21    1
    42    15    40    1
    43    16    21    1
    44    16    41    1
    45    17    20    1
    46    17    42    1
    47    17    43    1
    48    18    44    1
    49    18    45    1
    50    19    46    1
    51    19    47    1
    52    20    48    1
    53    20    49    1
    54    21    24    2
    55    22    50    1
    56    22    51    1
    57    22    52    1
    58    23    25    1
    59    23    53    1
    60    23    54    1
    61    24    56    1
    62    24    57    1
    63    25    58    1
    64    25    59    1
