@<TRIPOS>MOLECULE
IMPHY003008
 161 169 0 0 0
SMALL
GASTEIGER

@<TRIPOS>ATOM
      1 O          12.6203    4.5909    0.0000 O.3     1  UNL1       -0.3450
      2 O          11.0912    5.8229    0.0000 O.3     1  UNL1       -0.3642
      3 O          11.1972   -3.6532    0.0000 O.3     1  UNL1       -0.3454
      4 O           9.4651   -3.6532    0.0000 O.3     1  UNL1       -0.3405
      5 O          15.2548    7.6903    0.0000 O.3     1  UNL1       -0.3484
      6 O          11.1972   -5.6532    0.0000 O.3     1  UNL1       -0.3841
      7 O           9.4651   -6.6532    0.0000 O.3     1  UNL1       -0.3864
      8 O           7.7331   -5.6532    0.0000 O.3     1  UNL1       -0.3401
      9 O           7.7331   -2.6532    0.0000 O.3     1  UNL1       -0.3924
     10 O          16.7574    6.8287    0.0000 O.3     1  UNL1       -0.3405
     11 O           6.8671   -4.1532    0.0000 O.3     1  UNL1       -0.3405
     12 O          16.2496    9.4253    0.0000 O.3     1  UNL1       -0.3841
     13 O           6.0010   -6.6532    0.0000 O.3     1  UNL1       -0.3378
     14 O          18.2496    9.4313    0.0000 O.3     1  UNL1       -0.3864
     15 O          19.2548    7.7022    0.0000 O.3     1  UNL1       -0.3865
     16 O           4.2690   -5.6532    0.0000 O.3     1  UNL1       -0.3864
     17 O           4.2690   -3.6532    0.0000 O.3     1  UNL1       -0.3865
     18 O          19.2600    5.9702    0.0000 O.3     1  UNL1       -0.3924
     19 O           4.2690   -6.6532    0.0000 O.3     1  UNL1       -0.3405
     20 O           5.1350   -2.1532    0.0000 O.3     1  UNL1       -0.3924
     21 O           6.0010   -8.6532    0.0000 O.3     1  UNL1       -0.3841
     22 O           4.2690   -9.6532    0.0000 O.3     1  UNL1       -0.3864
     23 O           2.5369   -8.6532    0.0000 O.3     1  UNL1       -0.3865
     24 O           2.5369   -5.6532    0.0000 O.3     1  UNL1       -0.3924
     25 C          11.2264    2.5437    0.0000 C.3     1  UNL1       -0.0233
     26 C          12.0944    2.0471    0.0000 C.3     1  UNL1       -0.0298
     27 C          12.0983    1.0471    0.0000 C.3     1  UNL1       -0.0343
     28 C          11.4319    3.5163    0.0000 C.3     1  UNL1       -0.0015
     29 C          11.2342    0.5437    0.0000 C.3     1  UNL1       -0.0323
     30 C          11.2221   -0.4978    0.0000 C.3     1  UNL1       -0.0260
     31 C          12.4202    3.6232    0.0000 C.3     1  UNL1        0.0660
     32 C          12.8288    2.7170    0.0000 C.3     1  UNL1       -0.0226
     33 C          10.3624    2.0404    0.0000 C.3     1  UNL1       -0.0467
     34 C          10.3662    1.0404    0.0000 C.3     1  UNL1       -0.0489
     35 C          12.1222   -1.0221    0.0000 C.3     1  UNL1       -0.0330
     36 C          11.0296    4.4189    0.0000 C.3     1  UNL1        0.0158
     37 C          13.0102    0.5437    0.0000 C.3     1  UNL1       -0.0494
     38 C          13.0222   -0.4978    0.0000 C.3     1  UNL1       -0.0494
     39 C          10.3585    3.0404    0.0000 C.3     1  UNL1       -0.0590
     40 C          11.7626    5.0817    0.0000 C.3     1  UNL1        0.1704
     41 C          10.2722   -1.0221    0.0000 C.3     1  UNL1       -0.0448
     42 C          12.1347   -2.1070    0.0000 C.3     1  UNL1       -0.0232
     43 C          10.3580    0.0055    0.0000 C.3     1  UNL1       -0.0590
     44 C          10.2597   -2.1070    0.0000 C.3     1  UNL1       -0.0260
     45 C          11.1972   -2.6532    0.0000 C.3     1  UNL1        0.0621
     46 C          10.0512    4.6256    0.0000 C.3     1  UNL1       -0.0572
     47 C          12.2600    5.9492    0.0000 C.3     1  UNL1        0.0018
     48 C          13.2600    5.9522    0.0000 C.3     1  UNL1       -0.0435
     49 C          13.7574    6.8198    0.0000 C.3     1  UNL1       -0.0201
     50 C          10.3312   -4.1532    0.0000 C.3     1  UNL1        0.1882
     51 C          10.3312   -5.1532    0.0000 C.3     1  UNL1        0.1341
     52 C          14.7574    6.8227    0.0000 C.3     1  UNL1        0.0533
     53 C          13.2548    7.6843    0.0000 C.3     1  UNL1       -0.0603
     54 C           9.4651   -5.6532    0.0000 C.3     1  UNL1        0.1144
     55 C           8.5991   -4.1532    0.0000 C.3     1  UNL1        0.1134
     56 C           8.5991   -5.1532    0.0000 C.3     1  UNL1        0.1184
     57 C           7.7331   -3.6532    0.0000 C.3     1  UNL1        0.0730
     58 C          16.2548    7.6932    0.0000 C.3     1  UNL1        0.1879
     59 C          16.7522    8.5608    0.0000 C.3     1  UNL1        0.1341
     60 C           6.8671   -5.1532    0.0000 C.3     1  UNL1        0.1888
     61 C          17.7522    8.5638    0.0000 C.3     1  UNL1        0.1141
     62 C           6.0010   -5.6532    0.0000 C.3     1  UNL1        0.1406
     63 C          17.7574    6.8317    0.0000 C.3     1  UNL1        0.1130
     64 C          18.2548    7.6992    0.0000 C.3     1  UNL1        0.1119
     65 C           5.1350   -5.1532    0.0000 C.3     1  UNL1        0.1144
     66 C           6.0010   -3.6532    0.0000 C.3     1  UNL1        0.1130
     67 C           5.1350   -4.1532    0.0000 C.3     1  UNL1        0.1119
     68 C          18.2600    5.9672    0.0000 C.3     1  UNL1        0.0730
     69 C           6.0010   -2.6532    0.0000 C.3     1  UNL1        0.0730
     70 C           5.1350   -7.1532    0.0000 C.3     1  UNL1        0.1885
     71 C           5.1350   -8.1532    0.0000 C.3     1  UNL1        0.1341
     72 C           4.2690   -8.6532    0.0000 C.3     1  UNL1        0.1141
     73 C           3.4030   -7.1532    0.0000 C.3     1  UNL1        0.1130
     74 C           3.4030   -8.1532    0.0000 C.3     1  UNL1        0.1119
     75 C           2.5369   -6.6532    0.0000 C.3     1  UNL1        0.0730
     76 H          12.8727    1.7053    0.0000 H       1  UNL1        0.0310
     77 H          12.8294    1.4806    0.0000 H       1  UNL1        0.0306
     78 H          10.5866    3.4268    0.0000 H       1  UNL1        0.0335
     79 H          11.9686    0.1159    0.0000 H       1  UNL1        0.0309
     80 H          13.2651    3.7164    0.0000 H       1  UNL1        0.0600
     81 H          13.1962    2.2175    0.0000 H       1  UNL1        0.0293
     82 H          13.3641    3.0298    0.0000 H       1  UNL1        0.0293
     83 H          10.1481    2.6222    0.0000 H       1  UNL1        0.0271
     84 H           9.7522    1.9304    0.0000 H       1  UNL1        0.0271
     85 H           9.7552    1.1457    0.0000 H       1  UNL1        0.0268
     86 H          10.1564    0.4570    0.0000 H       1  UNL1        0.0268
     87 H          12.8616   -1.4414    0.0000 H       1  UNL1        0.0307
     88 H          10.4952    3.7579    0.0000 H       1  UNL1        0.0354
     89 H          13.6222    0.4447    0.0000 H       1  UNL1        0.0268
     90 H          13.2125    1.1298    0.0000 H       1  UNL1        0.0268
     91 H          13.2380   -1.0791    0.0000 H       1  UNL1        0.0268
     92 H          13.6318   -0.3847    0.0000 H       1  UNL1        0.0268
     93 H          10.6664    3.5785    0.0000 H       1  UNL1        0.0235
     94 H           9.8204    3.3483    0.0000 H       1  UNL1        0.0235
     95 H          10.0506    2.5022    0.0000 H       1  UNL1        0.0235
     96 H          10.0699   -0.4360    0.0000 H       1  UNL1        0.0271
     97 H           9.6602   -1.1211    0.0000 H       1  UNL1        0.0271
     98 H          12.3505   -2.6883    0.0000 H       1  UNL1        0.0293
     99 H          12.7443   -1.9939    0.0000 H       1  UNL1        0.0293
    100 H          10.6701    0.5412    0.0000 H       1  UNL1        0.0235
    101 H           9.8223    0.3176    0.0000 H       1  UNL1        0.0235
    102 H          10.0460   -0.5302    0.0000 H       1  UNL1        0.0235
    103 H           9.6501   -1.9939    0.0000 H       1  UNL1        0.0290
    104 H          10.0439   -2.6883    0.0000 H       1  UNL1        0.0290
    105 H          11.9341   -3.0767    0.0000 H       1  UNL1        0.0597
    106 H          10.1793    5.2322    0.0000 H       1  UNL1        0.0234
    107 H           9.4446    4.7538    0.0000 H       1  UNL1        0.0234
    108 H           9.9231    4.0190    0.0000 H       1  UNL1        0.0234
    109 H          12.3658    6.5602    0.0000 H       1  UNL1        0.0317
    110 H          11.6768    6.1596    0.0000 H       1  UNL1        0.0317
    111 H          11.2811    6.4131    0.0000 H       1  UNL1        0.2128
    112 H          13.1542    5.3413    0.0000 H       1  UNL1        0.0270
    113 H          13.8432    5.7419    0.0000 H       1  UNL1        0.0270
    114 H          12.9074    6.8172    0.0000 H       1  UNL1        0.0320
    115 H          10.3312   -3.3032    0.0000 H       1  UNL1        0.0937
    116 H          10.3312   -6.0032    0.0000 H       1  UNL1        0.0671
    117 H          14.6516    6.2118    0.0000 H       1  UNL1        0.0563
    118 H          15.3406    6.6124    0.0000 H       1  UNL1        0.0563
    119 H          13.7908    7.9959    0.0000 H       1  UNL1        0.0233
    120 H          12.9432    8.2203    0.0000 H       1  UNL1        0.0233
    121 H          12.7188    7.3727    0.0000 H       1  UNL1        0.0233
    122 H           8.7290   -6.0782    0.0000 H       1  UNL1        0.0648
    123 H           8.5991   -3.3032    0.0000 H       1  UNL1        0.0647
    124 H           7.8630   -4.7282    0.0000 H       1  UNL1        0.0651
    125 H          11.7341   -5.3431    0.0000 H       1  UNL1        0.2101
    126 H           7.1225   -3.5455    0.0000 H       1  UNL1        0.0584
    127 H           7.5210   -4.2358    0.0000 H       1  UNL1        0.0584
    128 H          10.0021   -6.9632    0.0000 H       1  UNL1        0.2100
    129 H          15.8320    6.9559    0.0000 H       1  UNL1        0.0937
    130 H          15.9022    8.5582    0.0000 H       1  UNL1        0.0671
    131 H           6.8671   -6.0032    0.0000 H       1  UNL1        0.0938
    132 H           7.1962   -2.3432    0.0000 H       1  UNL1        0.2095
    133 H          17.3250    9.2986    0.0000 H       1  UNL1        0.0648
    134 H           5.2649   -6.0782    0.0000 H       1  UNL1        0.0675
    135 H          17.3346    6.0943    0.0000 H       1  UNL1        0.0647
    136 H          18.6776    8.4366    0.0000 H       1  UNL1        0.0647
    137 H           4.3989   -4.7282    0.0000 H       1  UNL1        0.0648
    138 H          16.5580    9.9632    0.0000 H       1  UNL1        0.2101
    139 H           6.7372   -3.2282    0.0000 H       1  UNL1        0.0647
    140 H           5.1350   -3.3032    0.0000 H       1  UNL1        0.0647
    141 H          17.6780    5.7534    0.0000 H       1  UNL1        0.0584
    142 H          18.3694    5.3569    0.0000 H       1  UNL1        0.0584
    143 H          18.8696    9.4331    0.0000 H       1  UNL1        0.2100
    144 H          19.5632    8.2401    0.0000 H       1  UNL1        0.2100
    145 H           6.6116   -2.7608    0.0000 H       1  UNL1        0.0584
    146 H           6.2131   -2.0705    0.0000 H       1  UNL1        0.0584
    147 H           5.1350   -6.3031    0.0000 H       1  UNL1        0.0938
    148 H           3.7320   -5.3431    0.0000 H       1  UNL1        0.2100
    149 H           3.7320   -3.9632    0.0000 H       1  UNL1        0.2100
    150 H          19.5716    5.4342    0.0000 H       1  UNL1        0.2095
    151 H           5.1350   -9.0032    0.0000 H       1  UNL1        0.0671
    152 H           3.5329   -9.0782    0.0000 H       1  UNL1        0.0648
    153 H           5.1350   -1.5332    0.0000 H       1  UNL1        0.2095
    154 H           3.4030   -6.3031    0.0000 H       1  UNL1        0.0647
    155 H           2.6668   -7.7282    0.0000 H       1  UNL1        0.0647
    156 H           6.0010   -9.2732    0.0000 H       1  UNL1        0.2101
    157 H           1.9264   -6.5455    0.0000 H       1  UNL1        0.0584
    158 H           2.3249   -7.2358    0.0000 H       1  UNL1        0.0584
    159 H           3.7320   -9.9632    0.0000 H       1  UNL1        0.2100
    160 H           2.0000   -8.3432    0.0000 H       1  UNL1        0.2100
    161 H           2.0000   -5.3431    0.0000 H       1  UNL1        0.2095
@<TRIPOS>BOND
     1     1    31    1
     2     1    40    1
     3     2    40    1
     4     2   111    1
     5     3    45    1
     6     3    50    1
     7     4    50    1
     8     4    55    1
     9     5    52    1
    10     5    58    1
    11     6    51    1
    12     6   125    1
    13     7    54    1
    14     7   128    1
    15     8    56    1
    16     8    60    1
    17     9    57    1
    18     9   132    1
    19    10    58    1
    20    10    63    1
    21    11    60    1
    22    11    66    1
    23    12    59    1
    24    12   138    1
    25    13    62    1
    26    13    70    1
    27    14    61    1
    28    14   143    1
    29    15    64    1
    30    15   144    1
    31    16    65    1
    32    16   148    1
    33    17    67    1
    34    17   149    1
    35    18    68    1
    36    18   150    1
    37    19    70    1
    38    19    73    1
    39    20    69    1
    40    20   153    1
    41    21    71    1
    42    21   156    1
    43    22    72    1
    44    22   159    1
    45    23    74    1
    46    23   160    1
    47    24    75    1
    48    24   161    1
    49    25    26    1
    50    25    28    1
    51    25    33    1
    52    25    39    1
    53    26    27    1
    54    26    32    1
    55    26    76    1
    56    27    29    1
    57    27    37    1
    58    27    77    1
    59    28    31    1
    60    28    36    1
    61    28    78    1
    62    29    30    1
    63    29    34    1
    64    29    79    1
    65    30    35    1
    66    30    41    1
    67    30    43    1
    68    31    32    1
    69    31    80    1
    70    32    81    1
    71    32    82    1
    72    33    34    1
    73    33    83    1
    74    33    84    1
    75    34    85    1
    76    34    86    1
    77    35    38    1
    78    35    42    1
    79    35    87    1
    80    36    40    1
    81    36    46    1
    82    36    88    1
    83    37    38    1
    84    37    89    1
    85    37    90    1
    86    38    91    1
    87    38    92    1
    88    39    93    1
    89    39    94    1
    90    39    95    1
    91    40    47    1
    92    41    44    1
    93    41    96    1
    94    41    97    1
    95    42    45    1
    96    42    98    1
    97    42    99    1
    98    43   100    1
    99    43   101    1
   100    43   102    1
   101    44    45    1
   102    44   103    1
   103    44   104    1
   104    45   105    1
   105    46   106    1
   106    46   107    1
   107    46   108    1
   108    47    48    1
   109    47   109    1
   110    47   110    1
   111    48    49    1
   112    48   112    1
   113    48   113    1
   114    49    52    1
   115    49    53    1
   116    49   114    1
   117    50    51    1
   118    50   115    1
   119    51    54    1
   120    51   116    1
   121    52   117    1
   122    52   118    1
   123    53   119    1
   124    53   120    1
   125    53   121    1
   126    54    56    1
   127    54   122    1
   128    55    56    1
   129    55    57    1
   130    55   123    1
   131    56   124    1
   132    57   126    1
   133    57   127    1
   134    58    59    1
   135    58   129    1
   136    59    61    1
   137    59   130    1
   138    60    62    1
   139    60   131    1
   140    61    64    1
   141    61   133    1
   142    62    65    1
   143    62   134    1
   144    63    64    1
   145    63    68    1
   146    63   135    1
   147    64   136    1
   148    65    67    1
   149    65   137    1
   150    66    67    1
   151    66    69    1
   152    66   139    1
   153    67   140    1
   154    68   141    1
   155    68   142    1
   156    69   145    1
   157    69   146    1
   158    70    71    1
   159    70   147    1
   160    71    72    1
   161    71   151    1
   162    72    74    1
   163    72   152    1
   164    73    74    1
   165    73    75    1
   166    73   154    1
   167    74   155    1
   168    75   157    1
   169    75   158    1
