@<TRIPOS>MOLECULE
IMPHY013406
 89 94 0 0 0
SMALL
GASTEIGER

@<TRIPOS>ATOM
      1 O          10.3551    1.7719    0.0000 O.3     1  UNL1       -0.3609
      2 O           6.9026    4.7852    0.0000 O.3     1  UNL1       -0.3664
      3 O           8.6153   -0.2214    0.0000 O.3     1  UNL1       -0.3862
      4 O          10.3435   -1.2281    0.0000 O.3     1  UNL1       -0.3865
      5 O          12.0794   -0.2348    0.0000 O.3     1  UNL1       -0.3865
      6 O           7.7671    0.2404    0.0000 O.2     1  UNL1       -0.4540
      7 O           9.4987    4.2752    0.0000 O.3     1  UNL1       -0.3862
      8 O           5.1350   -4.2839    0.0000 O.3     1  UNL1       -0.3313
      9 O           9.5064    6.2752    0.0000 O.3     1  UNL1       -0.3865
     10 O           9.4948    3.2752    0.0000 O.3     1  UNL1       -0.5058
     11 O           7.7782    7.2819    0.0000 O.3     1  UNL1       -0.3869
     12 O          12.9512    1.2619    0.0000 O.3     1  UNL1       -0.3924
     13 O           6.0308    3.2886    0.0000 O.3     1  UNL1       -0.5054
     14 O           6.8671   -4.2839    0.0000 O.3     1  UNL1       -0.4608
     15 O           5.1350   -7.2839    0.0000 O.3     1  UNL1       -0.3864
     16 O           3.4030   -6.2839    0.0000 O.3     1  UNL1       -0.3865
     17 O           6.8671   -6.2839    0.0000 O.3     1  UNL1       -0.3829
     18 O           5.1208    1.7952    0.0000 O.2     1  UNL1       -0.2869
     19 O           2.5369   -4.7839    0.0000 O.3     1  UNL1       -0.3924
     20 C           9.4871    1.2752    0.0000 C.3     1  UNL1        0.1193
     21 C           9.4833    0.2752    0.0000 C.3     1  UNL1        0.1139
     22 C          10.3474   -0.2281    0.0000 C.3     1  UNL1        0.1121
     23 C          11.2153    0.2686    0.0000 C.3     1  UNL1        0.1117
     24 C          11.2192    1.2686    0.0000 C.3     1  UNL1        0.1108
     25 C           8.6230    1.7786    0.0000 C.ar    1  UNL1        0.0686
     26 C           7.7666    4.2819    0.0000 C.3     1  UNL1        0.1188
     27 C           8.6346    4.7786    0.0000 C.3     1  UNL1        0.1139
     28 C           7.7628    3.2819    0.0000 C.ar    1  UNL1        0.0677
     29 C           8.6384    5.7785    0.0000 C.3     1  UNL1        0.1117
     30 C           8.6269    2.7786    0.0000 C.ar    1  UNL1        0.1353
     31 C           7.7551    1.2819    0.0000 C.ar    1  UNL1        0.1520
     32 C           7.7744    6.2819    0.0000 C.3     1  UNL1        0.1068
     33 C          12.0871    1.7652    0.0000 C.3     1  UNL1        0.0729
     34 C           6.9064    5.7852    0.0000 C.3     1  UNL1        0.0770
     35 C           6.8948    2.7852    0.0000 C.ar    1  UNL1        0.1404
     36 C           6.8910    1.7852    0.0000 C.ar    1  UNL1        0.1062
     37 C           5.1350   -6.2839    0.0000 C.3     1  UNL1        0.1152
     38 C           4.2690   -5.7839    0.0000 C.3     1  UNL1        0.1120
     39 C           6.0010   -5.7839    0.0000 C.3     1  UNL1        0.1454
     40 C           4.2690   -4.7839    0.0000 C.3     1  UNL1        0.1140
     41 C           6.0010   -4.7839    0.0000 C.3     1  UNL1        0.2308
     42 C           5.9790    1.2819    0.0000 C.ar    1  UNL1        0.1966
     43 C           6.8671   -0.2839    0.0000 C.ar    1  UNL1        0.1392
     44 C           3.4030   -4.2839    0.0000 C.3     1  UNL1        0.0731
     45 C           5.9670    0.2404    0.0000 C.ar    1  UNL1        0.0288
     46 C           6.8671   -1.2839    0.0000 C.ar    1  UNL1        0.0176
     47 C           6.8671   -3.2839    0.0000 C.ar    1  UNL1        0.1240
     48 C           7.7331   -1.7839    0.0000 C.ar    1  UNL1       -0.0476
     49 C           6.0010   -1.7839    0.0000 C.ar    1  UNL1       -0.0476
     50 C           7.7331   -2.7839    0.0000 C.ar    1  UNL1       -0.0192
     51 C           6.0010   -2.7839    0.0000 C.ar    1  UNL1       -0.0192
     52 H           9.4904    2.1252    0.0000 H       1  UNL1        0.0676
     53 H           8.9475    0.5873    0.0000 H       1  UNL1        0.0649
     54 H          10.8831   -0.5402    0.0000 H       1  UNL1        0.0647
     55 H          11.7534    0.5765    0.0000 H       1  UNL1        0.0647
     56 H          11.2215    1.8886    0.0000 H       1  UNL1        0.0646
     57 H           7.0289    3.8597    0.0000 H       1  UNL1        0.0675
     58 H           8.6322    4.1586    0.0000 H       1  UNL1        0.0649
     59 H           9.1742    5.4665    0.0000 H       1  UNL1        0.0647
     60 H           7.2386    6.5939    0.0000 H       1  UNL1        0.0643
     61 H          12.4875    2.2386    0.0000 H       1  UNL1        0.0584
     62 H          11.6904    2.2417    0.0000 H       1  UNL1        0.0584
     63 H           6.6966    6.3686    0.0000 H       1  UNL1        0.0587
     64 H           6.2954    5.6799    0.0000 H       1  UNL1        0.0587
     65 H           4.5981   -6.5939    0.0000 H       1  UNL1        0.0648
     66 H           4.2690   -6.4039    0.0000 H       1  UNL1        0.0647
     67 H           8.6129   -0.8414    0.0000 H       1  UNL1        0.2100
     68 H           6.0010   -6.4039    0.0000 H       1  UNL1        0.0683
     69 H           4.2690   -4.1639    0.0000 H       1  UNL1        0.0647
     70 H          10.8792   -1.5401    0.0000 H       1  UNL1        0.2100
     71 H          12.0770   -0.8548    0.0000 H       1  UNL1        0.2100
     72 H           6.0010   -4.1639    0.0000 H       1  UNL1        0.1084
     73 H          10.0368    4.5831    0.0000 H       1  UNL1        0.2100
     74 H           9.5088    6.8952    0.0000 H       1  UNL1        0.2100
     75 H          10.0306    2.9632    0.0000 H       1  UNL1        0.2922
     76 H           3.8015   -3.8090    0.0000 H       1  UNL1        0.0584
     77 H           3.0044   -3.8090    0.0000 H       1  UNL1        0.0584
     78 H           7.2425    7.5939    0.0000 H       1  UNL1        0.2100
     79 H           5.4277   -0.0655    0.0000 H       1  UNL1        0.0693
     80 H          13.4893    1.5698    0.0000 H       1  UNL1        0.2095
     81 H           5.4926    2.9806    0.0000 H       1  UNL1        0.2922
     82 H           5.6720   -7.5939    0.0000 H       1  UNL1        0.2100
     83 H           3.4030   -6.9039    0.0000 H       1  UNL1        0.2100
     84 H           7.4040   -5.9739    0.0000 H       1  UNL1        0.2102
     85 H           8.2700   -1.4739    0.0000 H       1  UNL1        0.0626
     86 H           5.4641   -1.4739    0.0000 H       1  UNL1        0.0626
     87 H           8.2700   -3.0939    0.0000 H       1  UNL1        0.0654
     88 H           5.4641   -3.0939    0.0000 H       1  UNL1        0.0654
     89 H           2.0000   -4.4739    0.0000 H       1  UNL1        0.2095
@<TRIPOS>BOND
     1     1    20    1
     2     1    24    1
     3     2    26    1
     4     2    34    1
     5     3    21    1
     6     3    67    1
     7    22     4    1
     8     4    70    1
     9    23     5    1
    10     5    71    1
    11     6    31   ar
    12     6    43   ar
    13     7    27    1
    14     7    73    1
    15     8    40    1
    16     8    41    1
    17    29     9    1
    18     9    74    1
    19    10    30    1
    20    10    75    1
    21    32    11    1
    22    11    78    1
    23    12    33    1
    24    12    80    1
    25    13    35    1
    26    13    81    1
    27    41    14    1
    28    14    47    1
    29    37    15    1
    30    15    82    1
    31    38    16    1
    32    16    83    1
    33    17    39    1
    34    17    84    1
    35    18    42    2
    36    19    44    1
    37    19    89    1
    38    20    21    1
    39    20    25    1
    40    20    52    1
    41    21    22    1
    42    21    53    1
    43    22    23    1
    44    22    54    1
    45    23    24    1
    46    23    55    1
    47    24    33    1
    48    24    56    1
    49    25    30   ar
    50    25    31   ar
    51    26    27    1
    52    26    28    1
    53    26    57    1
    54    27    29    1
    55    27    58    1
    56    28    30   ar
    57    28    35   ar
    58    29    32    1
    59    29    59    1
    60    31    36   ar
    61    32    34    1
    62    32    60    1
    63    33    61    1
    64    33    62    1
    65    34    63    1
    66    34    64    1
    67    35    36   ar
    68    36    42   ar
    69    37    38    1
    70    37    39    1
    71    37    65    1
    72    38    40    1
    73    38    66    1
    74    39    41    1
    75    39    68    1
    76    40    44    1
    77    40    69    1
    78    41    72    1
    79    42    45   ar
    80    43    45   ar
    81    43    46    1
    82    44    76    1
    83    44    77    1
    84    45    79    1
    85    46    48   ar
    86    46    49   ar
    87    47    50   ar
    88    47    51   ar
    89    48    50   ar
    90    48    85    1
    91    49    51   ar
    92    49    86    1
    93    50    87    1
    94    51    88    1
