@<TRIPOS>MOLECULE
IMPHY004601
 33 35 0 0 0
SMALL
GASTEIGER

@<TRIPOS>ATOM
      1 O           5.5301   -1.2379    0.0000 O.2     1  UNL1       -0.4618
      2 O           2.0000   -1.2621    0.0000 O.3     1  UNL1       -0.4949
      3 O           3.7817    1.7967    0.0000 O.3     1  UNL1       -0.5058
      4 O           5.5301    1.7621    0.0000 O.2     1  UNL1       -0.2863
      5 O           9.8602    2.2621    0.0000 O.3     1  UNL1       -0.5068
      6 C           4.6641    0.2621    0.0000 C.ar    1  UNL1        0.1060
      7 C           6.3961    0.2621    0.0000 C.ar    1  UNL1        0.0644
      8 C           4.6641   -0.7379    0.0000 C.ar    1  UNL1        0.1454
      9 C           5.5301    0.7621    0.0000 C.ar    1  UNL1        0.2037
     10 C           7.2622    0.7621    0.0000 C.ar    1  UNL1       -0.0110
     11 C           3.7702    0.7967    0.0000 C.ar    1  UNL1        0.1347
     12 C           3.7702   -1.2726    0.0000 C.ar    1  UNL1        0.0233
     13 C           6.3961   -0.7379    0.0000 C.ar    1  UNL1        0.1038
     14 C           2.8641   -0.7587    0.0000 C.ar    1  UNL1        0.1271
     15 C           2.8641    0.2829    0.0000 C.ar    1  UNL1        0.0225
     16 C           7.2622    1.7621    0.0000 C.ar    1  UNL1       -0.0504
     17 C           8.1282    0.2621    0.0000 C.ar    1  UNL1       -0.0504
     18 C           8.1282    2.2621    0.0000 C.ar    1  UNL1       -0.0196
     19 C           8.9942    0.7621    0.0000 C.ar    1  UNL1       -0.0196
     20 C           8.9942    1.7621    0.0000 C.ar    1  UNL1        0.1169
     21 C           2.0038   -2.2621    0.0000 C.3     1  UNL1        0.0788
     22 H           3.7773   -1.8926    0.0000 H       1  UNL1        0.0691
     23 H           6.9331   -1.0479    0.0000 H       1  UNL1        0.1037
     24 H           2.3284    0.5950    0.0000 H       1  UNL1        0.0691
     25 H           6.7252    2.0721    0.0000 H       1  UNL1        0.0625
     26 H           8.1282   -0.3579    0.0000 H       1  UNL1        0.0625
     27 H           8.1282    2.8821    0.0000 H       1  UNL1        0.0654
     28 H           9.5312    0.4521    0.0000 H       1  UNL1        0.0654
     29 H           3.2484    2.1128    0.0000 H       1  UNL1        0.2922
     30 H           1.3839   -2.2645    0.0000 H       1  UNL1        0.0660
     31 H           2.0062   -2.8821    0.0000 H       1  UNL1        0.0660
     32 H           2.6238   -2.2597    0.0000 H       1  UNL1        0.0660
     33 H          10.3972    1.9521    0.0000 H       1  UNL1        0.2921
@<TRIPOS>BOND
     1     1     8   ar
     2     1    13   ar
     3     2    14    1
     4     2    21    1
     5     3    11    1
     6     3    29    1
     7     4     9    2
     8     5    20    1
     9     5    33    1
    10     6     8   ar
    11     6     9   ar
    12     6    11   ar
    13     7     9   ar
    14     7    10    1
    15     7    13   ar
    16     8    12   ar
    17    10    16   ar
    18    10    17   ar
    19    11    15   ar
    20    12    14   ar
    21    12    22    1
    22    13    23    1
    23    14    15   ar
    24    15    24    1
    25    16    18   ar
    26    16    25    1
    27    17    19   ar
    28    17    26    1
    29    18    20   ar
    30    18    27    1
    31    19    20   ar
    32    19    28    1
    33    21    30    1
    34    21    31    1
    35    21    32    1
