@<TRIPOS>MOLECULE
IMPHY000816
 48 49 0 0 0
SMALL
GASTEIGER

@<TRIPOS>ATOM
      1 O           4.5981    0.3246    0.0000 O.3     1  UNL1       -0.4560
      2 O           7.1962   -1.1754    0.0000 O.2     1  UNL1       -0.2867
      3 O           7.1962    2.8246    0.0000 O.2     1  UNL1       -0.2871
      4 O           8.9446   -1.2100    0.0000 O.3     1  UNL1       -0.5060
      5 O           8.9446    2.8592    0.0000 O.3     1  UNL1       -0.5060
      6 O           3.7320   -1.1754    0.0000 O.2     1  UNL1       -0.2505
      7 C           5.4641   -0.1754    0.0000 C.3     1  UNL1        0.1351
      8 C           6.3301    0.3246    0.0000 C.2     1  UNL1        0.0440
      9 C           5.4641   -1.1754    0.0000 C.3     1  UNL1        0.0072
     10 C           7.1962   -0.1754    0.0000 C.2     1  UNL1        0.1971
     11 C           8.0622    0.3246    0.0000 C.ar    1  UNL1        0.0777
     12 C           8.0622    1.3246    0.0000 C.ar    1  UNL1        0.0773
     13 C           6.3301    1.3246    0.0000 C.2     1  UNL1       -0.0038
     14 C           7.1962    1.8246    0.0000 C.2     1  UNL1        0.1909
     15 C           4.5981   -1.6754    0.0000 C.2     1  UNL1       -0.0815
     16 C           2.8660    0.3246    0.0000 C.3     1  UNL1        0.0509
     17 C           3.7320   -0.1754    0.0000 C.2     1  UNL1        0.3103
     18 C           8.9561   -0.2101    0.0000 C.ar    1  UNL1        0.1286
     19 C           8.9561    1.8593    0.0000 C.ar    1  UNL1        0.1286
     20 C           4.5981   -2.6754    0.0000 C.2     1  UNL1       -0.0795
     21 C           9.8622    0.3038    0.0000 C.ar    1  UNL1       -0.0160
     22 C           9.8622    1.3454    0.0000 C.ar    1  UNL1       -0.0160
     23 C           2.0000   -0.1754    0.0000 C.3     1  UNL1       -0.0525
     24 C           2.8660    1.3246    0.0000 C.3     1  UNL1       -0.0525
     25 C           3.7320   -3.1754    0.0000 C.3     1  UNL1       -0.0440
     26 C           5.4641   -3.1754    0.0000 C.3     1  UNL1       -0.0440
     27 H           5.4641    0.4446    0.0000 H       1  UNL1        0.0789
     28 H           5.6762   -1.7580    0.0000 H       1  UNL1        0.0347
     29 H           6.0747   -1.0677    0.0000 H       1  UNL1        0.0347
     30 H           5.7932    1.6346    0.0000 H       1  UNL1        0.0661
     31 H           2.8660   -0.2954    0.0000 H       1  UNL1        0.0408
     32 H           4.0611   -1.3654    0.0000 H       1  UNL1        0.0573
     33 H          10.3979   -0.0083    0.0000 H       1  UNL1        0.0655
     34 H           1.6900    0.3615    0.0000 H       1  UNL1        0.0237
     35 H           1.4631   -0.4854    0.0000 H       1  UNL1        0.0237
     36 H           2.3100   -0.7123    0.0000 H       1  UNL1        0.0237
     37 H           3.4860    1.3246    0.0000 H       1  UNL1        0.0237
     38 H           2.8660    1.9446    0.0000 H       1  UNL1        0.0237
     39 H           2.2460    1.3246    0.0000 H       1  UNL1        0.0237
     40 H          10.3979    1.6575    0.0000 H       1  UNL1        0.0655
     41 H           3.4220   -2.6385    0.0000 H       1  UNL1        0.0274
     42 H           3.1951   -3.4854    0.0000 H       1  UNL1        0.0274
     43 H           4.0420   -3.7123    0.0000 H       1  UNL1        0.0274
     44 H           5.1541   -3.7123    0.0000 H       1  UNL1        0.0274
     45 H           6.0010   -3.4854    0.0000 H       1  UNL1        0.0274
     46 H           5.7741   -2.6385    0.0000 H       1  UNL1        0.0274
     47 H           9.4779   -1.5262    0.0000 H       1  UNL1        0.2922
     48 H           9.4779    3.1754    0.0000 H       1  UNL1        0.2922
@<TRIPOS>BOND
     1     7     1    1
     2     1    17    1
     3     2    10    2
     4     3    14    2
     5     4    18    1
     6     4    47    1
     7     5    19    1
     8     5    48    1
     9     6    17    2
    10     7     8    1
    11     7     9    1
    12     7    27    1
    13     8    10    1
    14     8    13    2
    15     9    15    1
    16     9    28    1
    17     9    29    1
    18    10    11    1
    19    11    12   ar
    20    11    18   ar
    21    12    14    1
    22    12    19   ar
    23    13    14    1
    24    13    30    1
    25    15    20    2
    26    15    32    1
    27    16    17    1
    28    16    23    1
    29    16    24    1
    30    16    31    1
    31    18    21   ar
    32    19    22   ar
    33    20    25    1
    34    20    26    1
    35    21    22   ar
    36    21    33    1
    37    22    40    1
    38    23    34    1
    39    23    35    1
    40    23    36    1
    41    24    37    1
    42    24    38    1
    43    24    39    1
    44    25    41    1
    45    25    42    1
    46    25    43    1
    47    26    44    1
    48    26    45    1
    49    26    46    1
