@<TRIPOS>MOLECULE
IMPHY009418
 39 41 0 0 0
SMALL
GASTEIGER

@<TRIPOS>ATOM
      1 O           4.2690   -2.0950    0.0000 O.3     1  UNL1       -0.3694
      2 O           2.5369   -0.0950    0.0000 O.3     1  UNL1       -0.3889
      3 O           4.2690    3.9050    0.0000 O.3     1  UNL1       -0.5068
      4 O           8.5991   -3.5950    0.0000 O.3     1  UNL1       -0.5068
      5 C           4.2690   -0.0950    0.0000 C.3     1  UNL1        0.0150
      6 C           5.1350   -0.5950    0.0000 C.3     1  UNL1       -0.0132
      7 C           3.4030   -0.5950    0.0000 C.3     1  UNL1        0.0854
      8 C           5.1350   -1.5950    0.0000 C.3     1  UNL1        0.0844
      9 C           3.4030   -1.5950    0.0000 C.3     1  UNL1        0.0749
     10 C           4.2690    0.9050    0.0000 C.ar    1  UNL1       -0.0414
     11 C           6.0010   -2.0950    0.0000 C.ar    1  UNL1       -0.0187
     12 C           5.1350    1.4050    0.0000 C.ar    1  UNL1       -0.0548
     13 C           3.4030    1.4050    0.0000 C.ar    1  UNL1       -0.0548
     14 C           6.0010   -3.0950    0.0000 C.ar    1  UNL1       -0.0527
     15 C           6.8671   -1.5950    0.0000 C.ar    1  UNL1       -0.0527
     16 C           5.1350    2.4050    0.0000 C.ar    1  UNL1       -0.0199
     17 C           3.4030    2.4050    0.0000 C.ar    1  UNL1       -0.0199
     18 C           4.2690    2.9050    0.0000 C.ar    1  UNL1        0.1169
     19 C           6.8671   -3.5950    0.0000 C.ar    1  UNL1       -0.0198
     20 C           7.7331   -2.0950    0.0000 C.ar    1  UNL1       -0.0198
     21 C           7.7331   -3.0950    0.0000 C.ar    1  UNL1        0.1169
     22 H           4.8059    0.2150    0.0000 H       1  UNL1        0.0376
     23 H           5.7456   -0.7027    0.0000 H       1  UNL1        0.0300
     24 H           5.3471   -0.0124    0.0000 H       1  UNL1        0.0300
     25 H           3.4030    0.0250    0.0000 H       1  UNL1        0.0622
     26 H           5.1350   -2.2150    0.0000 H       1  UNL1        0.0646
     27 H           2.7924   -1.4873    0.0000 H       1  UNL1        0.0586
     28 H           3.1909   -2.1776    0.0000 H       1  UNL1        0.0586
     29 H           5.6720    1.0950    0.0000 H       1  UNL1        0.0622
     30 H           2.8660    1.0950    0.0000 H       1  UNL1        0.0622
     31 H           2.0000   -0.4050    0.0000 H       1  UNL1        0.2099
     32 H           5.4641   -3.4050    0.0000 H       1  UNL1        0.0622
     33 H           6.8671   -0.9750    0.0000 H       1  UNL1        0.0622
     34 H           5.6720    2.7150    0.0000 H       1  UNL1        0.0654
     35 H           2.8660    2.7150    0.0000 H       1  UNL1        0.0654
     36 H           6.8671   -4.2150    0.0000 H       1  UNL1        0.0654
     37 H           8.2700   -1.7850    0.0000 H       1  UNL1        0.0654
     38 H           4.8059    4.2150    0.0000 H       1  UNL1        0.2921
     39 H           8.5991   -4.2150    0.0000 H       1  UNL1        0.2921
@<TRIPOS>BOND
     1     1     8    1
     2     1     9    1
     3     7     2    1
     4     2    31    1
     5     3    18    1
     6     3    38    1
     7     4    21    1
     8     4    39    1
     9     5     6    1
    10     5     7    1
    11     5    10    1
    12     5    22    1
    13     6     8    1
    14     6    23    1
    15     6    24    1
    16     7     9    1
    17     7    25    1
    18     8    11    1
    19     8    26    1
    20     9    27    1
    21     9    28    1
    22    10    12   ar
    23    10    13   ar
    24    11    14   ar
    25    11    15   ar
    26    12    16   ar
    27    12    29    1
    28    13    17   ar
    29    13    30    1
    30    14    19   ar
    31    14    32    1
    32    15    20   ar
    33    15    33    1
    34    16    18   ar
    35    16    34    1
    36    17    18   ar
    37    17    35    1
    38    19    21   ar
    39    19    36    1
    40    20    21   ar
    41    20    37    1
