@<TRIPOS>MOLECULE
IMPHY003394
 85 88 0 0 0
SMALL
GASTEIGER

@<TRIPOS>ATOM
      1 O           7.5821    3.6880    0.0000 O.3     1  UNL1       -0.3912
      2 O           5.5992   -4.4189    0.0000 O.3     1  UNL1       -0.3912
      3 C           4.9180    2.1638    0.0000 C.3     1  UNL1       -0.0195
      4 C           4.9180    3.1638    0.0000 C.3     1  UNL1       -0.0271
      5 C           4.0520    1.6638    0.0000 C.3     1  UNL1       -0.0057
      6 C           4.0693   -1.8384    0.0000 C.3     1  UNL1       -0.0221
      7 C           5.8119    3.6985    0.0000 C.3     1  UNL1       -0.0056
      8 C           3.5794   -2.7101    0.0000 C.3     1  UNL1       -0.0273
      9 C           3.5520   -0.9343    0.0000 C.3     1  UNL1       -0.0145
     10 C           5.8119    1.6292    0.0000 C.3     1  UNL1       -0.0442
     11 C           3.5520    0.7978    0.0000 C.3     1  UNL1       -0.0429
     12 C           4.0893   -3.5703    0.0000 C.3     1  UNL1       -0.0056
     13 C           4.0520    3.6638    0.0000 C.3     1  UNL1       -0.0454
     14 C           4.0520   -0.0682    0.0000 C.3     1  UNL1       -0.0452
     15 C           6.7180    3.1846    0.0000 C.3     1  UNL1        0.0606
     16 C           3.1860    2.1638    0.0000 C.2     1  UNL1       -0.0702
     17 C           5.0692   -1.8268    0.0000 C.3     1  UNL1       -0.0445
     18 C           6.7180    2.1430    0.0000 C.3     1  UNL1       -0.0258
     19 C           5.2601    1.2242    0.0000 C.3     1  UNL1       -0.0585
     20 C           3.1860    3.1638    0.0000 C.3     1  UNL1       -0.0312
     21 C           2.5381   -2.7382    0.0000 C.3     1  UNL1       -0.0454
     22 C           5.0893   -3.5587    0.0000 C.3     1  UNL1        0.0606
     23 C           4.5520    0.7978    0.0000 C.3     1  UNL1       -0.0553
     24 C           5.5792   -2.6870    0.0000 C.3     1  UNL1       -0.0258
     25 C           2.5104   -0.9383    0.0000 C.2     1  UNL1       -0.0730
     26 C           4.5593   -0.9666    0.0000 C.3     1  UNL1       -0.0587
     27 C           2.0000   -1.8463    0.0000 C.3     1  UNL1       -0.0314
     28 C           6.3019    4.5702    0.0000 C.3     1  UNL1       -0.0572
     29 C           5.3020    4.5586    0.0000 C.3     1  UNL1       -0.0572
     30 C           4.1009   -4.5702    0.0000 C.3     1  UNL1       -0.0572
     31 C           3.2292   -4.0803    0.0000 C.3     1  UNL1       -0.0572
     32 C           2.3199    1.6638    0.0000 C.2     1  UNL1       -0.0989
     33 C           2.0037   -0.0761    0.0000 C.2     1  UNL1       -0.0992
     34 H           4.9114    4.0138    0.0000 H       1  UNL1        0.0312
     35 H           3.1686   -3.4543    0.0000 H       1  UNL1        0.0312
     36 H           3.2409   -0.3979    0.0000 H       1  UNL1        0.0351
     37 H           5.4073    1.1594    0.0000 H       1  UNL1        0.0272
     38 H           6.2056    1.1501    0.0000 H       1  UNL1        0.0272
     39 H           3.0770    1.1963    0.0000 H       1  UNL1        0.0274
     40 H           3.0770    0.3993    0.0000 H       1  UNL1        0.0274
     41 H           4.4505    4.1388    0.0000 H       1  UNL1        0.0271
     42 H           3.6534    4.1388    0.0000 H       1  UNL1        0.0271
     43 H           4.5269   -0.4668    0.0000 H       1  UNL1        0.0271
     44 H           4.5269    0.3303    0.0000 H       1  UNL1        0.0271
     45 H           7.2555    2.8757    0.0000 H       1  UNL1        0.0599
     46 H           5.6494   -1.6080    0.0000 H       1  UNL1        0.0272
     47 H           4.9545   -1.2175    0.0000 H       1  UNL1        0.0272
     48 H           6.9271    1.5593    0.0000 H       1  UNL1        0.0290
     49 H           7.3289    2.2491    0.0000 H       1  UNL1        0.0290
     50 H           4.6775    1.0120    0.0000 H       1  UNL1        0.0235
     51 H           5.4722    0.6416    0.0000 H       1  UNL1        0.0235
     52 H           5.8427    1.4363    0.0000 H       1  UNL1        0.0235
     53 H           2.9739    3.7464    0.0000 H       1  UNL1        0.0310
     54 H           2.5754    3.0561    0.0000 H       1  UNL1        0.0310
     55 H           1.9603   -2.9629    0.0000 H       1  UNL1        0.0271
     56 H           2.6606   -3.3460    0.0000 H       1  UNL1        0.0271
     57 H           5.7092   -3.5516    0.0000 H       1  UNL1        0.0599
     58 H           4.0150    0.4878    0.0000 H       1  UNL1        0.0238
     59 H           4.8620    0.2608    0.0000 H       1  UNL1        0.0238
     60 H           5.0889    1.1078    0.0000 H       1  UNL1        0.0238
     61 H           6.0587   -3.0800    0.0000 H       1  UNL1        0.0290
     62 H           6.0495   -2.2830    0.0000 H       1  UNL1        0.0290
     63 H           5.0997   -1.2704    0.0000 H       1  UNL1        0.0235
     64 H           4.8630   -0.4261    0.0000 H       1  UNL1        0.0235
     65 H           4.0188   -0.6628    0.0000 H       1  UNL1        0.0235
     66 H           1.5195   -1.4546    0.0000 H       1  UNL1        0.0310
     67 H           1.5318   -2.2527    0.0000 H       1  UNL1        0.0310
     68 H           5.8353    4.8748    0.0000 H       1  UNL1        0.0236
     69 H           4.9858    5.0920    0.0000 H       1  UNL1        0.0236
     70 H           4.7686    4.2425    0.0000 H       1  UNL1        0.0236
     71 H           6.8424    4.2664    0.0000 H       1  UNL1        0.0236
     72 H           6.6057    5.1107    0.0000 H       1  UNL1        0.0236
     73 H           5.7614    4.8740    0.0000 H       1  UNL1        0.0236
     74 H           2.9130   -3.5470    0.0000 H       1  UNL1        0.0236
     75 H           2.6958   -4.3964    0.0000 H       1  UNL1        0.0236
     76 H           3.5453   -4.6136    0.0000 H       1  UNL1        0.0236
     77 H           3.4809   -4.5774    0.0000 H       1  UNL1        0.0236
     78 H           4.1081   -5.1902    0.0000 H       1  UNL1        0.0236
     79 H           4.7209   -4.5630    0.0000 H       1  UNL1        0.0236
     80 H           1.7830    1.9738    0.0000 H       1  UNL1        0.0535
     81 H           2.3199    1.0438    0.0000 H       1  UNL1        0.0535
     82 H           8.1202    3.3800    0.0000 H       1  UNL1        0.2098
     83 H           2.3095    0.4632    0.0000 H       1  UNL1        0.0534
     84 H           1.3837   -0.0809    0.0000 H       1  UNL1        0.0534
     85 H           6.2192   -4.4117    0.0000 H       1  UNL1        0.2098
@<TRIPOS>BOND
     1     1    15    1
     2     1    82    1
     3    22     2    1
     4     2    85    1
     5     3     4    1
     6     3     5    1
     7     3    10    1
     8     3    19    1
     9     4     7    1
    10     4    13    1
    11     4    34    1
    12     5    11    1
    13     5    16    1
    14     5    23    1
    15     6     8    1
    16     6     9    1
    17     6    17    1
    18     6    26    1
    19     7    15    1
    20     7    28    1
    21     7    29    1
    22     8    12    1
    23     8    21    1
    24     8    35    1
    25     9    14    1
    26     9    25    1
    27     9    36    1
    28    10    18    1
    29    10    37    1
    30    10    38    1
    31    11    14    1
    32    11    39    1
    33    11    40    1
    34    12    22    1
    35    12    30    1
    36    12    31    1
    37    13    20    1
    38    13    41    1
    39    13    42    1
    40    14    43    1
    41    14    44    1
    42    15    18    1
    43    15    45    1
    44    16    20    1
    45    16    32    2
    46    17    24    1
    47    17    46    1
    48    17    47    1
    49    18    48    1
    50    18    49    1
    51    19    50    1
    52    19    51    1
    53    19    52    1
    54    20    53    1
    55    20    54    1
    56    21    27    1
    57    21    55    1
    58    21    56    1
    59    22    24    1
    60    22    57    1
    61    23    58    1
    62    23    59    1
    63    23    60    1
    64    24    61    1
    65    24    62    1
    66    25    27    1
    67    25    33    2
    68    26    63    1
    69    26    64    1
    70    26    65    1
    71    27    66    1
    72    27    67    1
    73    28    71    1
    74    28    72    1
    75    28    73    1
    76    29    68    1
    77    29    69    1
    78    29    70    1
    79    30    77    1
    80    30    78    1
    81    30    79    1
    82    31    74    1
    83    31    75    1
    84    31    76    1
    85    32    80    1
    86    32    81    1
    87    33    83    1
    88    33    84    1
