@<TRIPOS>MOLECULE
IMPHY013833
 33 32 0 0 0
SMALL
GASTEIGER

@<TRIPOS>ATOM
      1 O           7.1962   -1.2500    0.0000 O.2     1  UNL1       -0.2974
      2 O           9.7942    1.2500    0.0000 O.2     1  UNL1       -0.2977
      3 C           4.5981    0.2500    0.0000 C.3     1  UNL1       -0.0527
      4 C           5.4641   -0.2500    0.0000 C.3     1  UNL1       -0.0464
      5 C           3.7320   -0.2500    0.0000 C.3     1  UNL1       -0.0533
      6 C           6.3301    0.2500    0.0000 C.3     1  UNL1        0.0058
      7 C           2.8660    0.2500    0.0000 C.3     1  UNL1       -0.0559
      8 C           7.1962   -0.2500    0.0000 C.2     1  UNL1        0.1338
      9 C           8.0622    0.2500    0.0000 C.3     1  UNL1        0.0125
     10 C           8.9282   -0.2500    0.0000 C.3     1  UNL1        0.0122
     11 C           2.0000   -0.2500    0.0000 C.3     1  UNL1       -0.0653
     12 C           9.7942    0.2500    0.0000 C.2     1  UNL1        0.1307
     13 C          10.6603   -0.2500    0.0000 C.3     1  UNL1       -0.0061
     14 H           4.9966    0.7249    0.0000 H       1  UNL1        0.0265
     15 H           4.1996    0.7249    0.0000 H       1  UNL1        0.0265
     16 H           5.0656   -0.7249    0.0000 H       1  UNL1        0.0269
     17 H           5.8626   -0.7249    0.0000 H       1  UNL1        0.0269
     18 H           3.3335   -0.7249    0.0000 H       1  UNL1        0.0265
     19 H           4.1306   -0.7249    0.0000 H       1  UNL1        0.0265
     20 H           6.7287    0.7249    0.0000 H       1  UNL1        0.0342
     21 H           5.9316    0.7249    0.0000 H       1  UNL1        0.0342
     22 H           3.2646    0.7249    0.0000 H       1  UNL1        0.0263
     23 H           2.4675    0.7249    0.0000 H       1  UNL1        0.0263
     24 H           8.4607    0.7249    0.0000 H       1  UNL1        0.0346
     25 H           7.6636    0.7249    0.0000 H       1  UNL1        0.0346
     26 H           8.5297   -0.7249    0.0000 H       1  UNL1        0.0345
     27 H           9.3267   -0.7249    0.0000 H       1  UNL1        0.0345
     28 H           1.6900    0.2869    0.0000 H       1  UNL1        0.0230
     29 H           1.4631   -0.5600    0.0000 H       1  UNL1        0.0230
     30 H           2.3100   -0.7869    0.0000 H       1  UNL1        0.0230
     31 H          10.3503   -0.7869    0.0000 H       1  UNL1        0.0306
     32 H          11.1972   -0.5600    0.0000 H       1  UNL1        0.0306
     33 H          10.9703    0.2869    0.0000 H       1  UNL1        0.0306
@<TRIPOS>BOND
     1     1     8    2
     2     2    12    2
     3     3     4    1
     4     3     5    1
     5     3    14    1
     6     3    15    1
     7     4     6    1
     8     4    16    1
     9     4    17    1
    10     5     7    1
    11     5    18    1
    12     5    19    1
    13     6     8    1
    14     6    20    1
    15     6    21    1
    16     7    11    1
    17     7    22    1
    18     7    23    1
    19     8     9    1
    20     9    10    1
    21     9    24    1
    22     9    25    1
    23    10    12    1
    24    10    26    1
    25    10    27    1
    26    11    28    1
    27    11    29    1
    28    11    30    1
    29    12    13    1
    30    13    31    1
    31    13    32    1
    32    13    33    1
