@<TRIPOS>MOLECULE
IMPHY003548
 95 98 0 0 0
SMALL
GASTEIGER

@<TRIPOS>ATOM
      1 O           7.1762    2.4039    0.0000 O.3     1  UNL1       -0.4572
      2 O           6.9584    5.4721    0.0000 O.3     1  UNL1       -0.3870
      3 O           8.8838    7.5768    0.0000 O.3     1  UNL1       -0.3771
      4 O           9.6942    7.6959    0.0000 O.3     1  UNL1       -0.3841
      5 O           8.0603    8.5600    0.0000 O.2     1  UNL1       -0.2892
      6 O           8.1629    0.9804    0.0000 O.2     1  UNL1       -0.2508
      7 O          11.5389    5.5026    0.0000 O.3     1  UNL1       -0.3906
      8 C           8.8542    3.5669    0.0000 C.3     1  UNL1        0.0172
      9 C           7.9981    2.9736    0.0000 C.3     1  UNL1        0.1233
     10 C           8.9403    2.5284    0.0000 C.3     1  UNL1        0.0124
     11 C           8.7603    4.6043    0.0000 C.3     1  UNL1        0.0143
     12 C           7.8593    5.0382    0.0000 C.3     1  UNL1        0.0847
     13 C           7.0596    3.4255    0.0000 C.3     1  UNL1       -0.0068
     14 C           6.9898    4.4648    0.0000 C.3     1  UNL1       -0.0101
     15 C           9.9369    2.6108    0.0000 C.3     1  UNL1       -0.0558
     16 C           8.5134    1.6241    0.0000 C.3     1  UNL1       -0.0558
     17 C           7.6368    6.0131    0.0000 C.3     1  UNL1        0.0463
     18 C           9.6613    5.0382    0.0000 C.2     1  UNL1       -0.0738
     19 C           8.2603    6.7950    0.0000 C.3     1  UNL1        0.1660
     20 C           5.9918    4.4016    0.0000 C.3     1  UNL1       -0.0596
     21 C           9.2603    6.7950    0.0000 C.3     1  UNL1        0.1149
     22 C           9.8838    6.0131    0.0000 C.2     1  UNL1       -0.0167
     23 C           6.7070    6.3648    0.0000 C.2     1  UNL1       -0.0687
     24 C           7.7105    7.6232    0.0000 C.2     1  UNL1        0.1935
     25 C           7.2586    1.4073    0.0000 C.2     1  UNL1        0.3076
     26 C           6.7525    7.3579    0.0000 C.2     1  UNL1       -0.0085
     27 C          10.8587    6.2357    0.0000 C.3     1  UNL1        0.0678
     28 C           6.4367    0.8376    0.0000 C.3     1  UNL1        0.0450
     29 C           5.9707    7.9814    0.0000 C.3     1  UNL1       -0.0366
     30 C           6.5192   -0.1590    0.0000 C.3     1  UNL1       -0.0430
     31 C           5.6973   -0.7287    0.0000 C.3     1  UNL1       -0.0526
     32 C           5.7797   -1.7253    0.0000 C.3     1  UNL1       -0.0530
     33 C           4.9578   -2.2949    0.0000 C.3     1  UNL1       -0.0531
     34 C           5.0402   -3.2915    0.0000 C.3     1  UNL1       -0.0531
     35 C           4.2184   -3.8612    0.0000 C.3     1  UNL1       -0.0531
     36 C           4.3008   -4.8578    0.0000 C.3     1  UNL1       -0.0531
     37 C           3.4789   -5.4275    0.0000 C.3     1  UNL1       -0.0531
     38 C           3.5613   -6.4241    0.0000 C.3     1  UNL1       -0.0531
     39 C           2.7395   -6.9938    0.0000 C.3     1  UNL1       -0.0533
     40 C           2.8219   -7.9904    0.0000 C.3     1  UNL1       -0.0559
     41 C           2.0000   -8.5600    0.0000 C.3     1  UNL1       -0.0653
     42 H           9.4718    3.6205    0.0000 H       1  UNL1        0.0353
     43 H           9.2996    4.2985    0.0000 H       1  UNL1        0.0375
     44 H           6.4430    3.4904    0.0000 H       1  UNL1        0.0307
     45 H           6.8901    2.8291    0.0000 H       1  UNL1        0.0307
     46 H           6.7929    5.0527    0.0000 H       1  UNL1        0.0327
     47 H           9.9880    1.9929    0.0000 H       1  UNL1        0.0236
     48 H          10.5548    2.6619    0.0000 H       1  UNL1        0.0236
     49 H           9.8858    3.2287    0.0000 H       1  UNL1        0.0236
     50 H           7.9527    1.8888    0.0000 H       1  UNL1        0.0236
     51 H           8.2487    1.0635    0.0000 H       1  UNL1        0.0236
     52 H           9.0740    1.3594    0.0000 H       1  UNL1        0.0236
     53 H           8.2413    5.8752    0.0000 H       1  UNL1        0.0405
     54 H          10.1460    4.6516    0.0000 H       1  UNL1        0.0577
     55 H           5.9526    5.0204    0.0000 H       1  UNL1        0.0233
     56 H           5.3730    4.3624    0.0000 H       1  UNL1        0.0233
     57 H           6.0309    3.7828    0.0000 H       1  UNL1        0.0233
     58 H           6.3401    5.4258    0.0000 H       1  UNL1        0.2102
     59 H           9.8764    6.8644    0.0000 H       1  UNL1        0.0675
     60 H           6.1890    6.0242    0.0000 H       1  UNL1        0.0580
     61 H           8.6573    8.1540    0.0000 H       1  UNL1        0.2109
     62 H          11.3795    6.5720    0.0000 H       1  UNL1        0.0605
     63 H          10.6179    6.8070    0.0000 H       1  UNL1        0.0605
     64 H           6.1774    1.4008    0.0000 H       1  UNL1        0.0377
     65 H           5.8371    0.6800    0.0000 H       1  UNL1        0.0377
     66 H          10.3125    7.7423    0.0000 H       1  UNL1        0.2104
     67 H           6.3572    8.4661    0.0000 H       1  UNL1        0.0279
     68 H           5.4859    8.3679    0.0000 H       1  UNL1        0.0279
     69 H           5.5841    7.4966    0.0000 H       1  UNL1        0.0279
     70 H           6.7785   -0.7221    0.0000 H       1  UNL1        0.0270
     71 H           7.1188   -0.0014    0.0000 H       1  UNL1        0.0270
     72 H          12.1434    5.6406    0.0000 H       1  UNL1        0.2098
     73 H           5.4379   -0.1655    0.0000 H       1  UNL1        0.0265
     74 H           5.0976   -0.8863    0.0000 H       1  UNL1        0.0265
     75 H           6.0390   -2.2884    0.0000 H       1  UNL1        0.0265
     76 H           6.3793   -1.5676    0.0000 H       1  UNL1        0.0265
     77 H           4.6985   -1.7318    0.0000 H       1  UNL1        0.0265
     78 H           4.3582   -2.4526    0.0000 H       1  UNL1        0.0265
     79 H           5.2996   -3.8547    0.0000 H       1  UNL1        0.0265
     80 H           5.6399   -3.1339    0.0000 H       1  UNL1        0.0265
     81 H           3.9590   -3.2981    0.0000 H       1  UNL1        0.0265
     82 H           3.6187   -4.0188    0.0000 H       1  UNL1        0.0265
     83 H           4.5601   -5.4210    0.0000 H       1  UNL1        0.0265
     84 H           4.9004   -4.7002    0.0000 H       1  UNL1        0.0265
     85 H           3.2196   -4.8643    0.0000 H       1  UNL1        0.0265
     86 H           2.8793   -5.5851    0.0000 H       1  UNL1        0.0265
     87 H           3.8207   -6.9872    0.0000 H       1  UNL1        0.0265
     88 H           4.1610   -6.2665    0.0000 H       1  UNL1        0.0265
     89 H           2.4801   -6.4306    0.0000 H       1  UNL1        0.0265
     90 H           2.1398   -7.1514    0.0000 H       1  UNL1        0.0265
     91 H           3.0812   -8.5535    0.0000 H       1  UNL1        0.0263
     92 H           3.4215   -7.8327    0.0000 H       1  UNL1        0.0263
     93 H           1.6468   -8.0505    0.0000 H       1  UNL1        0.0230
     94 H           1.4904   -8.9132    0.0000 H       1  UNL1        0.0230
     95 H           2.3532   -9.0696    0.0000 H       1  UNL1        0.0230
@<TRIPOS>BOND
     1     1     9    1
     2     1    25    1
     3     2    12    1
     4     2    58    1
     5     3    19    1
     6     3    61    1
     7     4    21    1
     8     4    66    1
     9     5    24    2
    10     6    25    2
    11     7    27    1
    12     7    72    1
    13     8     9    1
    14     8    10    1
    15     8    11    1
    16     8    42    1
    17     9    10    1
    18     9    13    1
    19    10    15    1
    20    10    16    1
    21    11    12    1
    22    11    18    1
    23    11    43    1
    24    12    14    1
    25    12    17    1
    26    13    14    1
    27    13    44    1
    28    13    45    1
    29    14    20    1
    30    14    46    1
    31    15    47    1
    32    15    48    1
    33    15    49    1
    34    16    50    1
    35    16    51    1
    36    16    52    1
    37    17    19    1
    38    17    23    1
    39    17    53    1
    40    18    22    2
    41    18    54    1
    42    19    21    1
    43    19    24    1
    44    20    55    1
    45    20    56    1
    46    20    57    1
    47    21    22    1
    48    21    59    1
    49    22    27    1
    50    23    26    2
    51    23    60    1
    52    24    26    1
    53    25    28    1
    54    26    29    1
    55    27    62    1
    56    27    63    1
    57    28    30    1
    58    28    64    1
    59    28    65    1
    60    29    67    1
    61    29    68    1
    62    29    69    1
    63    30    31    1
    64    30    70    1
    65    30    71    1
    66    31    32    1
    67    31    73    1
    68    31    74    1
    69    32    33    1
    70    32    75    1
    71    32    76    1
    72    33    34    1
    73    33    77    1
    74    33    78    1
    75    34    35    1
    76    34    79    1
    77    34    80    1
    78    35    36    1
    79    35    81    1
    80    35    82    1
    81    36    37    1
    82    36    83    1
    83    36    84    1
    84    37    38    1
    85    37    85    1
    86    37    86    1
    87    38    39    1
    88    38    87    1
    89    38    88    1
    90    39    40    1
    91    39    89    1
    92    39    90    1
    93    40    41    1
    94    40    91    1
    95    40    92    1
    96    41    93    1
    97    41    94    1
    98    41    95    1
