@<TRIPOS>MOLECULE
IMPHY010969
 49 51 0 0 0
SMALL
GASTEIGER

@<TRIPOS>ATOM
      1 O           4.5787    0.1857    0.0000 O.3     1  UNL1       -0.4561
      2 O           7.1188   -0.3031    0.0000 O.3     1  UNL1       -0.4582
      3 O           6.5309   -2.7355    0.0000 O.3     1  UNL1       -0.3774
      4 O           2.8660    0.1969    0.0000 O.2     1  UNL1       -0.2453
      5 O           7.9848   -1.7808    0.0000 O.2     1  UNL1       -0.2476
      6 N           5.4255    2.6299    0.0000 N.3     1  UNL1       -0.2886
      7 C           5.4255    1.6522    0.0000 C.3     1  UNL1        0.0723
      8 C           4.5787    1.1634    0.0000 C.3     1  UNL1        0.1239
      9 C           3.8842    2.0922    0.0000 C.3     1  UNL1       -0.0010
     10 C           4.4056    2.8743    0.0000 C.3     1  UNL1        0.0033
     11 C           6.2721    1.1634    0.0000 C.2     1  UNL1       -0.0148
     12 C           6.3609    2.8960    0.0000 C.3     1  UNL1        0.0182
     13 C           6.9692    2.0922    0.0000 C.2     1  UNL1       -0.0660
     14 C           6.2721    0.1857    0.0000 C.3     1  UNL1        0.1153
     15 C           5.4255   -1.2808    0.0000 C.3     1  UNL1       -0.0006
     16 C           6.2721   -1.7696    0.0000 C.3     1  UNL1        0.1620
     17 C           4.5787   -1.7696    0.0000 C.3     1  UNL1       -0.0155
     18 C           3.7320   -0.3031    0.0000 C.2     1  UNL1        0.3352
     19 C           3.7320   -1.2808    0.0000 C.2     1  UNL1        0.0328
     20 C           7.1188   -1.2808    0.0000 C.2     1  UNL1        0.3394
     21 C           5.4255   -0.2808    0.0000 C.3     1  UNL1       -0.0590
     22 C           5.5651   -2.4768    0.0000 C.3     1  UNL1       -0.0253
     23 C           2.8660   -1.7808    0.0000 C.2     1  UNL1       -0.0771
     24 C           2.0000   -1.2808    0.0000 C.3     1  UNL1       -0.0461
     25 H           5.4255    0.8022    0.0000 H       1  UNL1        0.0547
     26 H           3.7721    0.8952    0.0000 H       1  UNL1        0.0753
     27 H           3.4106    2.4923    0.0000 H       1  UNL1        0.0314
     28 H           3.4329    1.6670    0.0000 H       1  UNL1        0.0314
     29 H           4.6198    3.4561    0.0000 H       1  UNL1        0.0428
     30 H           3.8529    3.1553    0.0000 H       1  UNL1        0.0428
     31 H           6.8976    3.2064    0.0000 H       1  UNL1        0.0470
     32 H           6.1190    3.4669    0.0000 H       1  UNL1        0.0470
     33 H           7.5892    2.0934    0.0000 H       1  UNL1        0.0586
     34 H           5.6615    0.2934    0.0000 H       1  UNL1        0.0746
     35 H           6.0601   -0.3969    0.0000 H       1  UNL1        0.0746
     36 H           5.9624   -0.9708    0.0000 H       1  UNL1        0.0334
     37 H           4.1802   -2.2445    0.0000 H       1  UNL1        0.0319
     38 H           4.9772   -2.2446    0.0000 H       1  UNL1        0.0319
     39 H           6.0455   -0.2808    0.0000 H       1  UNL1        0.0234
     40 H           5.4254    0.3392    0.0000 H       1  UNL1        0.0234
     41 H           4.8055   -0.2808    0.0000 H       1  UNL1        0.0234
     42 H           5.1266   -2.0384    0.0000 H       1  UNL1        0.0263
     43 H           5.1267   -2.9152    0.0000 H       1  UNL1        0.0263
     44 H           6.0035   -2.9151    0.0000 H       1  UNL1        0.0263
     45 H           7.1298   -2.8960    0.0000 H       1  UNL1        0.2109
     46 H           2.8660   -2.4008    0.0000 H       1  UNL1        0.0574
     47 H           2.3100   -0.7438    0.0000 H       1  UNL1        0.0272
     48 H           1.4631   -0.9708    0.0000 H       1  UNL1        0.0272
     49 H           1.6900   -1.8177    0.0000 H       1  UNL1        0.0272
@<TRIPOS>BOND
     1     1     8    1
     2     1    18    1
     3     2    14    1
     4     2    20    1
     5    16     3    1
     6     3    45    1
     7     4    18    2
     8     5    20    2
     9     6     7    1
    10     6    10    1
    11     6    12    1
    12     7     8    1
    13     7    11    1
    14     7    25    1
    15     8     9    1
    16     8    26    1
    17     9    10    1
    18     9    27    1
    19     9    28    1
    20    10    29    1
    21    10    30    1
    22    11    13    2
    23    11    14    1
    24    12    13    1
    25    12    31    1
    26    12    32    1
    27    13    33    1
    28    14    34    1
    29    14    35    1
    30    15    16    1
    31    15    17    1
    32    15    21    1
    33    15    36    1
    34    16    20    1
    35    16    22    1
    36    17    19    1
    37    17    37    1
    38    17    38    1
    39    18    19    1
    40    19    23    2
    41    21    39    1
    42    21    40    1
    43    21    41    1
    44    22    42    1
    45    22    43    1
    46    22    44    1
    47    23    24    1
    48    23    46    1
    49    24    47    1
    50    24    48    1
    51    24    49    1
