@<TRIPOS>MOLECULE
IMPHY013169
 47 49 0 0 0
SMALL
GASTEIGER

@<TRIPOS>ATOM
      1 O           7.2342   -2.1249    0.0000 O.3     1  UNL1       -0.4820
      2 O           5.4641   -0.0661    0.0000 O.3     1  UNL1       -0.4543
      3 O           7.2458    0.9443    0.0000 O.3     1  UNL1       -0.3831
      4 O           8.9781    0.9513    0.0000 O.2     1  UNL1       -0.4217
      5 O           4.5923   -1.5628    0.0000 O.2     1  UNL1       -0.2508
      6 O           9.8723    2.4790    0.0000 O.2     1  UNL1       -0.2452
      7 C           6.3282   -1.6111    0.0000 C.3     1  UNL1        0.1444
      8 C           6.3282   -0.5694    0.0000 C.3     1  UNL1        0.1718
      9 C           7.2342   -0.0556    0.0000 C.3     1  UNL1        0.1276
     10 C           8.1282   -0.5902    0.0000 C.ar    1  UNL1        0.0691
     11 C           8.1282   -1.5902    0.0000 C.ar    1  UNL1        0.1308
     12 C           5.8315   -2.4790    0.0000 C.3     1  UNL1       -0.0215
     13 C           5.3282   -1.6149    0.0000 C.3     1  UNL1       -0.0215
     14 C           8.9942   -0.0902    0.0000 C.ar    1  UNL1        0.1483
     15 C           8.9942   -2.0902    0.0000 C.ar    1  UNL1       -0.0188
     16 C           9.8602   -0.5902    0.0000 C.ar    1  UNL1        0.0182
     17 C           4.5961   -0.5628    0.0000 C.2     1  UNL1        0.3078
     18 C           9.8602   -1.5902    0.0000 C.ar    1  UNL1       -0.0476
     19 C           3.7320   -0.0594    0.0000 C.3     1  UNL1        0.0473
     20 C           2.8641   -0.5561    0.0000 C.3     1  UNL1       -0.0367
     21 C          10.7702   -0.0834    0.0000 C.ar    1  UNL1       -0.0443
     22 C           2.0000   -0.0527    0.0000 C.3     1  UNL1       -0.0622
     23 C           2.8602   -1.5561    0.0000 C.3     1  UNL1       -0.0622
     24 C           9.8762    1.4790    0.0000 C.ar    1  UNL1        0.3372
     25 C          10.7783    0.9582    0.0000 C.ar    1  UNL1        0.0236
     26 H           5.7906   -0.8784    0.0000 H       1  UNL1        0.0804
     27 H           6.7003    0.2596    0.0000 H       1  UNL1        0.0685
     28 H           5.2934   -2.1711    0.0000 H       1  UNL1        0.0269
     29 H           5.5236   -3.0171    0.0000 H       1  UNL1        0.0269
     30 H           6.3696   -2.7869    0.0000 H       1  UNL1        0.0269
     31 H           5.3258   -0.9949    0.0000 H       1  UNL1        0.0269
     32 H           4.7082   -1.6173    0.0000 H       1  UNL1        0.0269
     33 H           5.3306   -2.2349    0.0000 H       1  UNL1        0.0269
     34 H           8.9942   -2.7102    0.0000 H       1  UNL1        0.0654
     35 H           6.7125    1.2605    0.0000 H       1  UNL1        0.2104
     36 H          10.3972   -1.9002    0.0000 H       1  UNL1        0.0626
     37 H           4.1324    0.4140    0.0000 H       1  UNL1        0.0380
     38 H           3.3353    0.4171    0.0000 H       1  UNL1        0.0380
     39 H           2.3260   -0.8640    0.0000 H       1  UNL1        0.0301
     40 H          11.3035   -0.3996    0.0000 H       1  UNL1        0.0627
     41 H           2.3121    0.4830    0.0000 H       1  UNL1        0.0232
     42 H           1.4643    0.2593    0.0000 H       1  UNL1        0.0232
     43 H           1.6879   -0.5885    0.0000 H       1  UNL1        0.0232
     44 H           2.2402   -1.5537    0.0000 H       1  UNL1        0.0232
     45 H           2.8578   -2.1761    0.0000 H       1  UNL1        0.0232
     46 H           3.4802   -1.5585    0.0000 H       1  UNL1        0.0232
     47 H          11.3164    1.2661    0.0000 H       1  UNL1        0.0689
@<TRIPOS>BOND
     1     1     7    1
     2     1    11    1
     3     2     8    1
     4     2    17    1
     5     3     9    1
     6     3    35    1
     7     4    14   ar
     8     4    24   ar
     9     5    17    2
    10     6    24    2
    11     7     8    1
    12     7    12    1
    13     7    13    1
    14     8     9    1
    15     8    26    1
    16     9    10    1
    17     9    27    1
    18    10    11   ar
    19    10    14   ar
    20    11    15   ar
    21    12    28    1
    22    12    29    1
    23    12    30    1
    24    13    31    1
    25    13    32    1
    26    13    33    1
    27    14    16   ar
    28    15    18   ar
    29    15    34    1
    30    16    18   ar
    31    16    21   ar
    32    17    19    1
    33    18    36    1
    34    19    20    1
    35    19    37    1
    36    19    38    1
    37    20    22    1
    38    20    23    1
    39    20    39    1
    40    21    25   ar
    41    21    40    1
    42    22    41    1
    43    22    42    1
    44    22    43    1
    45    23    44    1
    46    23    45    1
    47    23    46    1
    48    24    25   ar
    49    25    47    1
