@<TRIPOS>MOLECULE
IMPHY005845
 53 56 0 0 0
SMALL
GASTEIGER

@<TRIPOS>ATOM
      1 O           6.0427   -2.0357    0.0000 O.3     1  UNL1       -0.3339
      2 O           7.7748   -2.0357    0.0000 O.3     1  UNL1       -0.4570
      3 O           6.0427   -5.0357    0.0000 O.3     1  UNL1       -0.3864
      4 O           4.3107   -4.0357    0.0000 O.3     1  UNL1       -0.3866
      5 O           7.7748   -4.0357    0.0000 O.3     1  UNL1       -0.3829
      6 O           6.0427    1.9643    0.0000 O.2     1  UNL1       -0.4507
      7 O           9.5068   -1.0357    0.0000 O.3     1  UNL1       -0.5009
      8 O           9.5068    0.9643    0.0000 O.3     1  UNL1       -0.5032
      9 O           5.1767   -0.5357    0.0000 O.3     1  UNL1       -0.5007
     10 O           3.4446    0.4643    0.0000 O.2     1  UNL1       -0.2830
     11 O           2.5405    1.9612    0.0000 O.3     1  UNL1       -0.5058
     12 O           4.2986    5.0336    0.0000 O.3     1  UNL1       -0.5065
     13 C           6.0427   -4.0357    0.0000 C.3     1  UNL1        0.1151
     14 C           5.1767   -3.5357    0.0000 C.3     1  UNL1        0.1096
     15 C           6.9088   -3.5357    0.0000 C.3     1  UNL1        0.1454
     16 C           5.1767   -2.5357    0.0000 C.3     1  UNL1        0.0883
     17 C           6.9088   -2.5357    0.0000 C.3     1  UNL1        0.2309
     18 C           4.3107   -2.0357    0.0000 C.3     1  UNL1       -0.0360
     19 C           7.7748   -1.0357    0.0000 C.ar    1  UNL1        0.1695
     20 C           6.9088   -0.5357    0.0000 C.ar    1  UNL1       -0.0052
     21 C           8.6408   -0.5357    0.0000 C.ar    1  UNL1        0.2010
     22 C           6.9088    0.4643    0.0000 C.ar    1  UNL1        0.0282
     23 C           8.6408    0.4643    0.0000 C.ar    1  UNL1        0.1627
     24 C           6.0427    0.9643    0.0000 C.ar    1  UNL1        0.1808
     25 C           7.7748    0.9643    0.0000 C.ar    1  UNL1       -0.0055
     26 C           5.1767    0.4643    0.0000 C.ar    1  UNL1        0.2082
     27 C           4.3107    1.9643    0.0000 C.ar    1  UNL1        0.1092
     28 C           5.1767    2.4643    0.0000 C.ar    1  UNL1        0.1465
     29 C           4.3107    0.9643    0.0000 C.ar    1  UNL1        0.2379
     30 C           3.4007    2.4712    0.0000 C.ar    1  UNL1        0.1348
     31 C           5.1928    3.5058    0.0000 C.ar    1  UNL1        0.0231
     32 C           4.2947    4.0336    0.0000 C.ar    1  UNL1        0.1239
     33 C           3.3926    3.5128    0.0000 C.ar    1  UNL1        0.0223
     34 H           6.5797   -4.3457    0.0000 H       1  UNL1        0.0648
     35 H           5.1767   -4.1557    0.0000 H       1  UNL1        0.0646
     36 H           7.4457   -3.2257    0.0000 H       1  UNL1        0.0683
     37 H           5.1767   -1.9157    0.0000 H       1  UNL1        0.0621
     38 H           6.9088   -1.9157    0.0000 H       1  UNL1        0.1084
     39 H           4.6207   -1.4987    0.0000 H       1  UNL1        0.0255
     40 H           3.7737   -1.7257    0.0000 H       1  UNL1        0.0255
     41 H           4.0007   -2.5726    0.0000 H       1  UNL1        0.0255
     42 H           5.5058   -5.3457    0.0000 H       1  UNL1        0.2100
     43 H           3.7737   -3.7257    0.0000 H       1  UNL1        0.2100
     44 H           7.7748   -4.6557    0.0000 H       1  UNL1        0.2102
     45 H           6.3718   -0.8457    0.0000 H       1  UNL1        0.0662
     46 H           7.7748    1.5843    0.0000 H       1  UNL1        0.0662
     47 H          10.0438   -0.7257    0.0000 H       1  UNL1        0.2924
     48 H           5.7332    3.8096    0.0000 H       1  UNL1        0.0691
     49 H           9.5068    1.5843    0.0000 H       1  UNL1        0.2923
     50 H           2.8545    3.8207    0.0000 H       1  UNL1        0.0691
     51 H           4.6398   -0.8457    0.0000 H       1  UNL1        0.2924
     52 H           2.0000    2.2650    0.0000 H       1  UNL1        0.2922
     53 H           3.7628    5.3457    0.0000 H       1  UNL1        0.2921
@<TRIPOS>BOND
     1     1    16    1
     2     1    17    1
     3    17     2    1
     4     2    19    1
     5    13     3    1
     6     3    42    1
     7    14     4    1
     8     4    43    1
     9    15     5    1
    10     5    44    1
    11     6    24   ar
    12     6    28   ar
    13     7    21    1
    14     7    47    1
    15     8    23    1
    16     8    49    1
    17     9    26    1
    18     9    51    1
    19    10    29    2
    20    11    30    1
    21    11    52    1
    22    12    32    1
    23    12    53    1
    24    13    14    1
    25    13    15    1
    26    13    34    1
    27    14    16    1
    28    14    35    1
    29    15    17    1
    30    15    36    1
    31    16    18    1
    32    16    37    1
    33    17    38    1
    34    18    39    1
    35    18    40    1
    36    18    41    1
    37    19    20   ar
    38    19    21   ar
    39    20    22   ar
    40    20    45    1
    41    21    23   ar
    42    22    24    1
    43    22    25   ar
    44    23    25   ar
    45    24    26   ar
    46    25    46    1
    47    26    29   ar
    48    27    28   ar
    49    27    29   ar
    50    27    30   ar
    51    28    31   ar
    52    30    33   ar
    53    31    32   ar
    54    31    48    1
    55    32    33   ar
    56    33    50    1
