@<TRIPOS>MOLECULE
IMPHY009068
 33 36 0 0 0
SMALL
GASTEIGER

@<TRIPOS>ATOM
      1 O           3.6571   -2.6960    0.0000 O.3     1  UNL1       -0.4893
      2 O           2.2298    0.5433    0.0000 O.2     1  UNL1       -0.2630
      3 O           2.0000   -1.4920    0.0000 O.2     1  UNL1       -0.2781
      4 N           3.9900    0.3552    0.0000 N.ar    1  UNL1       -0.2710
      5 N           5.6097   -1.7158    0.0000 N.ar    1  UNL1       -0.3456
      6 C           4.7990   -0.2326    0.0000 C.ar    1  UNL1        0.0851
      7 C           5.6080    0.3552    0.0000 C.ar    1  UNL1        0.0115
      8 C           4.7061   -1.2701    0.0000 C.ar    1  UNL1        0.1126
      9 C           5.2990    1.3062    0.0000 C.ar    1  UNL1        0.0082
     10 C           4.2990    1.3062    0.0000 C.ar    1  UNL1        0.0580
     11 C           6.4643   -0.1758    0.0000 C.ar    1  UNL1       -0.0357
     12 C           3.7578   -1.7011    0.0000 C.ar    1  UNL1        0.1977
     13 C           3.0320   -0.0538    0.0000 C.ar    1  UNL1        0.3070
     14 C           6.4651   -1.1833    0.0000 C.ar    1  UNL1        0.0056
     15 C           2.9151   -1.0888    0.0000 C.ar    1  UNL1        0.2865
     16 C           5.8336    2.2002    0.0000 C.ar    1  UNL1       -0.0520
     17 C           3.7643    2.2002    0.0000 C.ar    1  UNL1       -0.0371
     18 C           5.6590   -2.7145    0.0000 C.3     1  UNL1        0.0120
     19 C           5.3198    3.1062    0.0000 C.ar    1  UNL1       -0.0611
     20 C           4.2782    3.1062    0.0000 C.ar    1  UNL1       -0.0598
     21 C           2.7451   -3.1062    0.0000 C.3     1  UNL1        0.0791
     22 H           7.0059    0.1259    0.0000 H       1  UNL1        0.0639
     23 H           7.0072   -1.4842    0.0000 H       1  UNL1        0.0809
     24 H           6.4536    2.1930    0.0000 H       1  UNL1        0.0624
     25 H           3.1444    2.1930    0.0000 H       1  UNL1        0.0638
     26 H           5.0397   -2.7451    0.0000 H       1  UNL1        0.0456
     27 H           5.6895   -3.3338    0.0000 H       1  UNL1        0.0456
     28 H           6.2782   -2.6840    0.0000 H       1  UNL1        0.0456
     29 H           5.6319    3.6420    0.0000 H       1  UNL1        0.0618
     30 H           3.9661    3.6420    0.0000 H       1  UNL1        0.0618
     31 H           2.4908   -2.5408    0.0000 H       1  UNL1        0.0660
     32 H           2.1797   -3.3606    0.0000 H       1  UNL1        0.0660
     33 H           2.9995   -3.6717    0.0000 H       1  UNL1        0.0660
@<TRIPOS>BOND
     1     1    12    1
     2     1    21    1
     3     2    13    2
     4     3    15    2
     5     4     6   ar
     6     4    10   ar
     7     4    13   ar
     8     5     8   ar
     9     5    14   ar
    10     5    18    1
    11     6     7   ar
    12     6     8    1
    13     7     9   ar
    14     7    11   ar
    15     8    12   ar
    16     9    10   ar
    17     9    16   ar
    18    10    17   ar
    19    11    14   ar
    20    11    22    1
    21    12    15   ar
    22    13    15   ar
    23    14    23    1
    24    16    19   ar
    25    16    24    1
    26    17    20   ar
    27    17    25    1
    28    18    26    1
    29    18    27    1
    30    18    28    1
    31    19    20   ar
    32    19    29    1
    33    20    30    1
    34    21    31    1
    35    21    32    1
    36    21    33    1
