@<TRIPOS>MOLECULE
IMPHY003237
 15 15 0 0 0
SMALL
GASTEIGER

@<TRIPOS>ATOM
      1 S           3.0878   -1.1739    0.0000 S.2     1  UNL1       -0.1016
      2 C           2.5878    0.3649    0.0000 C.ar    1  UNL1       -0.0432
      3 C           3.8968   -0.5861    0.0000 C.ar    1  UNL1       -0.0130
      4 C           3.5878    0.3649    0.0000 C.ar    1  UNL1       -0.0489
      5 C           2.2788   -0.5861    0.0000 C.ar    1  UNL1       -0.0212
      6 C           2.0000    1.1739    0.0000 C.3     1  UNL1       -0.0392
      7 C           4.8479   -0.8952    0.0000 C.3     1  UNL1       -0.0334
      8 H           3.9522    0.8665    0.0000 H       1  UNL1        0.0628
      9 H           1.6891   -0.7777    0.0000 H       1  UNL1        0.0696
     10 H           2.5016    1.5384    0.0000 H       1  UNL1        0.0278
     11 H           1.6356    1.6755    0.0000 H       1  UNL1        0.0278
     12 H           1.4984    0.8095    0.0000 H       1  UNL1        0.0278
     13 H           4.6563   -1.4848    0.0000 H       1  UNL1        0.0283
     14 H           5.4375   -1.0868    0.0000 H       1  UNL1        0.0283
     15 H           5.0395   -0.3055    0.0000 H       1  UNL1        0.0283
@<TRIPOS>BOND
     1     1     3   ar
     2     1     5   ar
     3     2     4   ar
     4     2     5   ar
     5     2     6    1
     6     3     4   ar
     7     3     7    1
     8     4     8    1
     9     5     9    1
    10     6    10    1
    11     6    11    1
    12     6    12    1
    13     7    13    1
    14     7    14    1
    15     7    15    1
