@<TRIPOS>MOLECULE
IMPHY007260
 26 28 0 0 0
SMALL
GASTEIGER

@<TRIPOS>ATOM
      1 O           6.4144    2.0346    0.0000 O.3     1  UNL1       -0.5060
      2 O           6.4144   -2.0346    0.0000 O.3     1  UNL1       -0.5060
      3 O           4.6660   -2.0000    0.0000 O.2     1  UNL1       -0.2865
      4 O           4.6660    2.0000    0.0000 O.2     1  UNL1       -0.2865
      5 C           5.5321    0.5000    0.0000 C.ar    1  UNL1        0.0779
      6 C           5.5321   -0.5000    0.0000 C.ar    1  UNL1        0.0779
      7 C           3.8000    0.5000    0.0000 C.ar    1  UNL1        0.0332
      8 C           3.8000   -0.5000    0.0000 C.ar    1  UNL1        0.0332
      9 C           4.6660    1.0000    0.0000 C.2     1  UNL1        0.1981
     10 C           4.6660   -1.0000    0.0000 C.2     1  UNL1        0.1981
     11 C           6.4260    1.0347    0.0000 C.ar    1  UNL1        0.1286
     12 C           6.4260   -1.0347    0.0000 C.ar    1  UNL1        0.1286
     13 C           2.9061    1.0347    0.0000 C.ar    1  UNL1       -0.0502
     14 C           2.9061   -1.0347    0.0000 C.ar    1  UNL1       -0.0502
     15 C           7.3321    0.5208    0.0000 C.ar    1  UNL1       -0.0160
     16 C           7.3321   -0.5208    0.0000 C.ar    1  UNL1       -0.0160
     17 C           2.0000   -0.5208    0.0000 C.ar    1  UNL1       -0.0610
     18 C           2.0000    0.5208    0.0000 C.ar    1  UNL1       -0.0610
     19 H           2.9132    1.6546    0.0000 H       1  UNL1        0.0625
     20 H           2.9132   -1.6546    0.0000 H       1  UNL1        0.0625
     21 H           7.8678    0.8329    0.0000 H       1  UNL1        0.0655
     22 H           7.8678   -0.8329    0.0000 H       1  UNL1        0.0655
     23 H           1.4643    0.8329    0.0000 H       1  UNL1        0.0618
     24 H           1.4643   -0.8329    0.0000 H       1  UNL1        0.0618
     25 H           6.9478    2.3508    0.0000 H       1  UNL1        0.2922
     26 H           6.9478   -2.3508    0.0000 H       1  UNL1        0.2922
@<TRIPOS>BOND
     1     1    11    1
     2     1    25    1
     3     2    12    1
     4     2    26    1
     5     3    10    2
     6     4     9    2
     7     5     6   ar
     8     5     9    1
     9     5    11   ar
    10     6    10    1
    11     6    12   ar
    12     7     8   ar
    13     7     9    1
    14     7    13   ar
    15     8    10    1
    16     8    14   ar
    17    11    15   ar
    18    12    16   ar
    19    13    18   ar
    20    13    19    1
    21    14    17   ar
    22    14    20    1
    23    15    16   ar
    24    15    21    1
    25    16    22    1
    26    17    18   ar
    27    17    24    1
    28    18    23    1
