@<TRIPOS>MOLECULE
IMPHY011518
 19 20 0 0 0
SMALL
GASTEIGER

@<TRIPOS>ATOM
      1 O           5.4920   -1.0347    0.0000 O.2     1  UNL1       -0.4220
      2 O           2.0000    1.0000    0.0000 O.3     1  UNL1       -0.5033
      3 O           2.0000   -1.0000    0.0000 O.3     1  UNL1       -0.5032
      4 O           7.2622   -1.0241    0.0000 O.2     1  UNL1       -0.2452
      5 C           4.5981    0.5000    0.0000 C.ar    1  UNL1        0.0213
      6 C           4.5981   -0.5000    0.0000 C.ar    1  UNL1        0.1427
      7 C           3.7320    1.0000    0.0000 C.ar    1  UNL1       -0.0059
      8 C           3.7320   -1.0000    0.0000 C.ar    1  UNL1        0.0265
      9 C           2.8660    0.5000    0.0000 C.ar    1  UNL1        0.1590
     10 C           2.8660   -0.5000    0.0000 C.ar    1  UNL1        0.1618
     11 C           5.4920    1.0347    0.0000 C.ar    1  UNL1       -0.0442
     12 C           6.3981    0.5208    0.0000 C.ar    1  UNL1        0.0236
     13 C           6.3981   -0.5208    0.0000 C.ar    1  UNL1        0.3372
     14 H           3.7320    1.6200    0.0000 H       1  UNL1        0.0662
     15 H           3.7320   -1.6200    0.0000 H       1  UNL1        0.0692
     16 H           5.4848    1.6546    0.0000 H       1  UNL1        0.0627
     17 H           6.9338    0.8329    0.0000 H       1  UNL1        0.0689
     18 H           2.0000    1.6200    0.0000 H       1  UNL1        0.2923
     19 H           2.0000   -1.6200    0.0000 H       1  UNL1        0.2923
@<TRIPOS>BOND
     1     1     6   ar
     2     1    13   ar
     3     2     9    1
     4     2    18    1
     5     3    10    1
     6     3    19    1
     7     4    13    2
     8     5     6   ar
     9     5     7   ar
    10     5    11   ar
    11     6     8   ar
    12     7     9   ar
    13     7    14    1
    14     8    10   ar
    15     8    15    1
    16     9    10   ar
    17    11    12   ar
    18    11    16    1
    19    12    13   ar
    20    12    17    1
