@<TRIPOS>MOLECULE
IMPHY000972
 160 164 0 0 0
SMALL
GASTEIGER

@<TRIPOS>ATOM
      1 O           4.1240   -1.9254    0.0000 O.2     1  PRO1       -0.2735
      2 O           5.2641   -2.3433    0.0000 O.2     9  VAL9       -0.2735
      3 O           4.4659    2.0143    0.0000 O.2     2  PRO2       -0.2738
      4 O           3.7320   -3.5929    0.0000 O.2     8  LEU8       -0.2738
      5 O           5.3320    2.5143    0.0000 O.2     3  PHE3       -0.2738
      6 O           5.6874   -2.8590    0.0000 O.2     7  ILE7       -0.2738
      7 O           9.5281   -2.2178    0.0000 O.2     6  ILE6       -0.2738
      8 O           8.2960    3.3803    0.0000 O.2     4  PHE4       -0.2738
      9 O          11.4940    0.2555    0.0000 O.2     5  LEU5       -0.2738
     10 N           6.1980   -0.9857    0.0000 N.am    1  PRO1       -0.2884
     11 N           3.5999   -0.4857    0.0000 N.am    2  PRO2       -0.2884
     12 N           5.4641   -3.5929    0.0000 N.am    9  VAL9       -0.3022
     13 N           5.3320    0.5143    0.0000 N.am    3  PHE3       -0.3022
     14 N           5.4641   -1.5929    0.0000 N.am    8  LEU8       -0.3025
     15 N           7.0640    2.5143    0.0000 N.am    4  PHE4       -0.3022
     16 N           8.1621   -1.8517    0.0000 N.am    7  ILE7       -0.3022
     17 N          10.0281   -0.3517    0.0000 N.am    6  ILE6       -0.3022
     18 N           9.6621    2.0143    0.0000 N.am    5  LEU5       -0.3025
     19 CA          5.3320   -0.4857    0.0000 C.3     1  PRO1        0.1025
     20 CB          5.4248    1.0092    0.0000 C.3     1  PRO1       -0.0243
     21 CA          3.5999    0.5143    0.0000 C.3     2  PRO2        0.1023
     22 CG          6.9049    1.2387    0.0000 C.3     1  PRO1       -0.0350
     23 CD          7.4462   -0.1578    0.0000 C.3     1  PRO1        0.0156
     24 C           4.4659   -0.9857    0.0000 C.2     1  PRO1        0.2367
     25 CB          2.6537    0.8190    0.0000 C.3     2  PRO2       -0.0243
     26 CD          2.6537   -0.7904    0.0000 C.3     2  PRO2        0.0156
     27 CG          2.0701    0.0143    0.0000 C.3     2  PRO2       -0.0350
     28 C           6.1980   -1.9857    0.0000 C.2     9  VAL9        0.2368
     29 CA          6.3301   -3.0929    0.0000 C.3     9  VAL9        0.1019
     30 C           4.4659    1.0143    0.0000 C.2     2  PRO2        0.2342
     31 CB          7.1845   -3.6126    0.0000 C.3     9  VAL9       -0.0197
     32 CA          6.1980    1.0143    0.0000 C.3     3  PHE3        0.1034
     33 CG1         7.1616   -4.6124    0.0000 C.3     9  VAL9       -0.0605
     34 CG2         8.0617   -3.1326    0.0000 C.3     9  VAL9       -0.0605
     35 C           4.5981   -3.0929    0.0000 C.2     8  LEU8        0.2340
     36 CA          4.5981   -2.0929    0.0000 C.3     8  LEU8        0.0996
     37 CB          7.0640    0.5143    0.0000 C.3     3  PHE3       -0.0007
     38 CB          3.7320   -1.5929    0.0000 C.3     8  LEU8       -0.0236
     39 C           6.1980    2.0143    0.0000 C.2     3  PHE3        0.2343
     40 CG          2.8660   -2.0929    0.0000 C.3     8  LEU8       -0.0446
     41 CA          7.1962   -1.5929    0.0000 C.3     7  ILE7        0.1020
     42 CB          7.0656   -0.6015    0.0000 C.3     7  ILE7       -0.0171
     43 C           6.3301   -2.0929    0.0000 C.2     7  ILE7        0.2342
     44 CG          7.4061   -0.4254    0.0000 C.ar    3  PHE3       -0.0451
     45 CA          9.0281   -0.3517    0.0000 C.3     6  ILE6        0.1020
     46 CA          7.9300    2.0143    0.0000 C.3     4  PHE4        0.1034
     47 CB          9.1153    0.6445    0.0000 C.3     6  ILE6       -0.0171
     48 CD1         2.0000   -1.5929    0.0000 C.3     8  LEU8       -0.0626
     49 CD2         2.8660   -3.0929    0.0000 C.3     8  LEU8       -0.0626
     50 CG1         7.8590    0.0073    0.0000 C.3     7  ILE7       -0.0512
     51 C           9.0281   -1.3517    0.0000 C.2     6  ILE6        0.2342
     52 CA          9.6621    1.0143    0.0000 C.3     5  LEU5        0.0996
     53 CG2         6.1418   -0.2188    0.0000 C.3     7  ILE7       -0.0603
     54 CB          8.9300    2.0144    0.0000 C.3     4  PHE4       -0.0007
     55 C           8.7960    2.5143    0.0000 C.2     4  PHE4        0.2343
     56 CG1        10.0812    0.9033    0.0000 C.3     6  ILE6       -0.0512
     57 CB          9.3200    0.0746    0.0000 C.3     5  LEU5       -0.0236
     58 CD1         6.7633   -1.1914    0.0000 C.ar    3  PHE3       -0.0585
     59 CD2         8.3908   -0.5991    0.0000 C.ar    3  PHE3       -0.0585
     60 C          10.5281    0.5143    0.0000 C.2     5  LEU5        0.2340
     61 CG2         8.2961    1.2180    0.0000 C.3     6  ILE6       -0.0603
     62 CG          9.9629   -0.6914    0.0000 C.3     5  LEU5       -0.0446
     63 CD1         7.7284    0.9987    0.0000 C.3     7  ILE7       -0.0650
     64 CG          9.4300    2.8803    0.0000 C.ar    4  PHE4       -0.0451
     65 CD1        10.9003    1.4768    0.0000 C.3     6  ILE6       -0.0650
     66 CE1         7.1053   -2.1311    0.0000 C.ar    3  PHE3       -0.0615
     67 CE2         8.7328   -1.5387    0.0000 C.ar    3  PHE3       -0.0615
     68 CD1        10.9477   -0.5177    0.0000 C.3     5  LEU5       -0.0626
     69 CD2        10.1366   -1.6763    0.0000 C.3     5  LEU5       -0.0626
     70 CZ          8.0902   -2.3048    0.0000 C.ar    3  PHE3       -0.0617
     71 CD1        10.4300    2.8803    0.0000 C.ar    4  PHE4       -0.0585
     72 CD2         8.9300    3.7463    0.0000 C.ar    4  PHE4       -0.0585
     73 CE1        10.9300    3.7463    0.0000 C.ar    4  PHE4       -0.0615
     74 CE2         9.4300    4.6124    0.0000 C.ar    4  PHE4       -0.0615
     75 CZ         10.4300    4.6124    0.0000 C.ar    4  PHE4       -0.0617
     76 HA          4.6094   -0.0381    0.0000 H       1  PRO1        0.0597
     77 HB1         5.3741    1.6271    0.0000 H       1  PRO1        0.0288
     78 HB2         4.8048    1.0030    0.0000 H       1  PRO1        0.0288
     79 HA          3.5100    1.3595    0.0000 H       2  PRO2        0.0597
     80 HG1         7.4976    1.4206    0.0000 H       1  PRO1        0.0281
     81 HG2         6.7661    1.8430    0.0000 H       1  PRO1        0.0281
     82 HD1         7.7508   -0.6978    0.0000 H       1  PRO1        0.0465
     83 HD2         8.0067    0.1072    0.0000 H       1  PRO1        0.0465
     84 HB1         2.9047    1.3859    0.0000 H       2  PRO2        0.0288
     85 HB2         2.1163    1.1282    0.0000 H       2  PRO2        0.0288
     86 HD1         2.1163   -1.0997    0.0000 H       2  PRO2        0.0465
     87 HD2         2.9047   -1.3574    0.0000 H       2  PRO2        0.0465
     88 HG1         1.6092    0.4290    0.0000 H       2  PRO2        0.0281
     89 HG2         1.6092   -0.4004    0.0000 H       2  PRO2        0.0281
     90 HA          6.3230   -3.7129    0.0000 H       9  VAL9        0.0597
     91 HB          7.7142   -3.9348    0.0000 H       9  VAL9        0.0318
     92 H           5.4641   -4.2129    0.0000 H       9  VAL9        0.1495
     93 H           4.7951    0.2042    0.0000 H       3  PHE3        0.1495
     94 HA          6.1980    0.3943    0.0000 H       3  PHE3        0.0598
     95 HG11        6.5417   -4.5982    0.0000 H       9  VAL9        0.0233
     96 HG12        7.1474   -5.2322    0.0000 H       9  VAL9        0.0233
     97 HG21        8.3593   -3.6765    0.0000 H       9  VAL9        0.0233
     98 HG22        8.6056   -2.8350    0.0000 H       9  VAL9        0.0233
     99 HG23        7.7641   -2.5887    0.0000 H       9  VAL9        0.0233
    100 HG13        7.7814   -4.6266    0.0000 H       9  VAL9        0.0233
    101 HA          4.5981   -1.4729    0.0000 H       8  LEU8        0.0594
    102 HB1         7.6830    0.5504    0.0000 H       3  PHE3        0.0336
    103 HB2         7.2070    1.1176    0.0000 H       3  PHE3        0.0336
    104 HB1         4.1306   -1.1180    0.0000 H       8  LEU8        0.0290
    105 HB2         3.3335   -1.1180    0.0000 H       8  LEU8        0.0290
    106 HG          2.8660   -1.4729    0.0000 H       8  LEU8        0.0296
    107 H           5.0656   -1.1180    0.0000 H       8  LEU8        0.1495
    108 HA          7.8352   -1.0325    0.0000 H       7  ILE7        0.0597
    109 HB          6.9847    0.0132    0.0000 H       7  ILE7        0.0321
    110 H           7.0640    3.1343    0.0000 H       4  PHE4        0.1495
    111 HA          9.6548    0.2225    0.0000 H       6  ILE6        0.0597
    112 HA          7.7696    1.4154    0.0000 H       4  PHE4        0.0598
    113 HB          9.2229    1.2550    0.0000 H       6  ILE6        0.0321
    114 H           8.6192   -2.2706    0.0000 H       7  ILE7        0.1495
    115 HD21        2.2460   -3.0929    0.0000 H       8  LEU8        0.0232
    116 HD22        2.8660   -3.7129    0.0000 H       8  LEU8        0.0232
    117 HD23        3.4860   -3.0929    0.0000 H       8  LEU8        0.0232
    118 HD11        2.3100   -1.0560    0.0000 H       8  LEU8        0.0232
    119 HD12        1.4631   -1.2829    0.0000 H       8  LEU8        0.0232
    120 HD13        1.6900   -2.1298    0.0000 H       8  LEU8        0.0232
    121 HG11        8.1453   -0.5427    0.0000 H       7  ILE7        0.0266
    122 HG12        8.4503    0.1937    0.0000 H       7  ILE7        0.0266
    123 HA          9.0515    1.1220    0.0000 H       5  LEU5        0.0594
    124 HG21        6.3790    0.3540    0.0000 H       7  ILE7        0.0233
    125 HG22        5.5689    0.0185    0.0000 H       7  ILE7        0.0233
    126 HG23        5.9045   -0.7916    0.0000 H       7  ILE7        0.0233
    127 H          10.4266   -0.8267    0.0000 H       6  ILE6        0.1495
    128 HB1         8.8224    1.4038    0.0000 H       4  PHE4        0.0336
    129 HB2         9.5126    1.8023    0.0000 H       4  PHE4        0.0336
    130 HG11        9.9913    0.2898    0.0000 H       6  ILE6        0.0266
    131 HG12        9.8192    1.4652    0.0000 H       6  ILE6        0.0266
    132 HB1         8.7831    0.3846    0.0000 H       5  LEU5        0.0290
    133 HB2         8.9215   -0.4003    0.0000 H       5  LEU5        0.0290
    134 HD1         6.1527   -1.0838    0.0000 H       3  PHE3        0.0620
    135 HD2         8.7894   -0.1241    0.0000 H       3  PHE3        0.0620
    136 H          10.1990    2.3243    0.0000 H       5  LEU5        0.1495
    137 HG21        8.6517    1.7259    0.0000 H       6  ILE6        0.0233
    138 HG22        7.7882    1.5736    0.0000 H       6  ILE6        0.0233
    139 HG23        7.9405    0.7102    0.0000 H       6  ILE6        0.0233
    140 HG          9.4010   -0.9535    0.0000 H       5  LEU5        0.0296
    141 HD11        8.3432    1.0797    0.0000 H       7  ILE7        0.0230
    142 HD12        7.6475    1.6134    0.0000 H       7  ILE7        0.0230
    143 HD13        7.1138    0.9178    0.0000 H       7  ILE7        0.0230
    144 HD11       11.2560    0.9690    0.0000 H       6  ILE6        0.0230
    145 HD12       11.4082    1.8325    0.0000 H       6  ILE6        0.0230
    146 HD13       10.5447    1.9847    0.0000 H       6  ILE6        0.0230
    147 HE1         6.7068   -2.6061    0.0000 H       3  PHE3        0.0618
    148 HE2         9.3434   -1.6464    0.0000 H       3  PHE3        0.0618
    149 HD21        9.5260   -1.7839    0.0000 H       5  LEU5        0.0232
    150 HD22       10.2443   -2.2868    0.0000 H       5  LEU5        0.0232
    151 HD23       10.7471   -1.5686    0.0000 H       5  LEU5        0.0232
    152 HD11       11.0554   -1.1283    0.0000 H       5  LEU5        0.0232
    153 HD12       11.5583   -0.4100    0.0000 H       5  LEU5        0.0232
    154 HD13       10.8400    0.0928    0.0000 H       5  LEU5        0.0232
    155 HZ          8.3022   -2.8874    0.0000 H       3  PHE3        0.0618
    156 HD1        10.7400    2.3434    0.0000 H       4  PHE4        0.0620
    157 HD2         8.3100    3.7463    0.0000 H       4  PHE4        0.0620
    158 HE1        11.5500    3.7463    0.0000 H       4  PHE4        0.0618
    159 HE2         9.1200    5.1493    0.0000 H       4  PHE4        0.0618
    160 HZ         10.7400    5.1493    0.0000 H       4  PHE4        0.0618
@<TRIPOS>BOND
     1     1    24    2
     2     2    28    2
     3     3    30    2
     4     4    35    2
     5     5    39    2
     6     6    43    2
     7     7    51    2
     8     8    55    2
     9     9    60    2
    10    10    19    1
    11    10    23    1
    12    10    28   am
    13    11    21    1
    14    11    24   am
    15    11    26    1
    16    12    29    1
    17    12    35   am
    18    12    92    1
    19    13    30   am
    20    13    32    1
    21    13    93    1
    22    14    36    1
    23    14    43   am
    24    14   107    1
    25    15    39   am
    26    15    46    1
    27    15   110    1
    28    16    41    1
    29    16    51   am
    30    16   114    1
    31    17    45    1
    32    17    60   am
    33    17   127    1
    34    18    52    1
    35    18    55   am
    36    18   136    1
    37    19    20    1
    38    19    24    1
    39    19    76    1
    40    20    22    1
    41    20    77    1
    42    20    78    1
    43    21    25    1
    44    21    30    1
    45    21    79    1
    46    22    23    1
    47    22    80    1
    48    22    81    1
    49    23    82    1
    50    23    83    1
    51    25    27    1
    52    25    84    1
    53    25    85    1
    54    26    27    1
    55    26    86    1
    56    26    87    1
    57    27    88    1
    58    27    89    1
    59    28    29    1
    60    29    31    1
    61    29    90    1
    62    31    33    1
    63    31    34    1
    64    31    91    1
    65    32    37    1
    66    32    39    1
    67    32    94    1
    68    33    95    1
    69    33    96    1
    70    33   100    1
    71    34    97    1
    72    34    98    1
    73    34    99    1
    74    35    36    1
    75    36    38    1
    76    36   101    1
    77    37    44    1
    78    37   102    1
    79    37   103    1
    80    38    40    1
    81    38   104    1
    82    38   105    1
    83    40    48    1
    84    40    49    1
    85    40   106    1
    86    41    42    1
    87    41    43    1
    88    41   108    1
    89    42    50    1
    90    42    53    1
    91    42   109    1
    92    44    58   ar
    93    44    59   ar
    94    45    47    1
    95    45    51    1
    96    45   111    1
    97    46    54    1
    98    46    55    1
    99    46   112    1
   100    47    56    1
   101    47    61    1
   102    47   113    1
   103    48   118    1
   104    48   119    1
   105    48   120    1
   106    49   115    1
   107    49   116    1
   108    49   117    1
   109    50    63    1
   110    50   121    1
   111    50   122    1
   112    52    57    1
   113    52    60    1
   114    52   123    1
   115    53   124    1
   116    53   125    1
   117    53   126    1
   118    54    64    1
   119    54   128    1
   120    54   129    1
   121    56    65    1
   122    56   130    1
   123    56   131    1
   124    57    62    1
   125    57   132    1
   126    57   133    1
   127    58    66   ar
   128    58   134    1
   129    59    67   ar
   130    59   135    1
   131    61   137    1
   132    61   138    1
   133    61   139    1
   134    62    68    1
   135    62    69    1
   136    62   140    1
   137    63   141    1
   138    63   142    1
   139    63   143    1
   140    64    71   ar
   141    64    72   ar
   142    65   144    1
   143    65   145    1
   144    65   146    1
   145    66    70   ar
   146    66   147    1
   147    67    70   ar
   148    67   148    1
   149    68   152    1
   150    68   153    1
   151    68   154    1
   152    69   149    1
   153    69   150    1
   154    69   151    1
   155    70   155    1
   156    71    73   ar
   157    71   156    1
   158    72    74   ar
   159    72   157    1
   160    73    75   ar
   161    73   158    1
   162    74    75   ar
   163    74   159    1
   164    75   160    1
