@<TRIPOS>MOLECULE
IMPHY010611
 36 37 0 0 0
SMALL
GASTEIGER

@<TRIPOS>ATOM
      1 O           6.4103   -1.1217    0.0000 O.2     1  UNL1       -0.4672
      2 C           3.7320   -0.8170    0.0000 C.3     1  UNL1       -0.0007
      3 C           3.7320    0.1830    0.0000 C.3     1  UNL1       -0.0071
      4 C           4.5981   -1.3170    0.0000 C.3     1  UNL1        0.0151
      5 C           4.5981    0.6830    0.0000 C.3     1  UNL1       -0.0169
      6 C           5.4641    0.1830    0.0000 C.ar    1  UNL1       -0.0030
      7 C           5.4641   -0.8170    0.0000 C.ar    1  UNL1        0.1091
      8 C           3.2320   -1.6830    0.0000 C.3     1  UNL1       -0.0552
      9 C           2.8660    0.6830    0.0000 C.2     1  UNL1       -0.0755
     10 C           2.7320   -0.8170    0.0000 C.2     1  UNL1       -0.0842
     11 C           6.4103    0.4877    0.0000 C.ar    1  UNL1       -0.0093
     12 C           6.9939   -0.3170    0.0000 C.ar    1  UNL1        0.0952
     13 C           2.8660    1.6830    0.0000 C.3     1  UNL1       -0.0437
     14 C           2.0000    0.1830    0.0000 C.2     1  UNL1       -0.0994
     15 C           6.7210    1.4383    0.0000 C.3     1  UNL1       -0.0365
     16 C           2.2320   -1.6830    0.0000 C.2     1  UNL1       -0.1021
     17 H           3.7320    1.0330    0.0000 H       1  UNL1        0.0357
     18 H           4.1996   -1.7919    0.0000 H       1  UNL1        0.0352
     19 H           4.9966   -1.7919    0.0000 H       1  UNL1        0.0352
     20 H           4.9966    1.1580    0.0000 H       1  UNL1        0.0320
     21 H           4.1996    1.1580    0.0000 H       1  UNL1        0.0320
     22 H           2.6951   -1.3730    0.0000 H       1  UNL1        0.0238
     23 H           2.9220   -2.2200    0.0000 H       1  UNL1        0.0238
     24 H           3.7690   -1.9930    0.0000 H       1  UNL1        0.0238
     25 H           2.4220   -0.2801    0.0000 H       1  UNL1        0.0572
     26 H           7.6139   -0.3170    0.0000 H       1  UNL1        0.1032
     27 H           3.4860    1.6830    0.0000 H       1  UNL1        0.0274
     28 H           2.8660    2.3030    0.0000 H       1  UNL1        0.0274
     29 H           2.2460    1.6830    0.0000 H       1  UNL1        0.0274
     30 H           1.4631    0.4930    0.0000 H       1  UNL1        0.0534
     31 H           2.0000   -0.4370    0.0000 H       1  UNL1        0.0534
     32 H           7.3103    1.2456    0.0000 H       1  UNL1        0.0279
     33 H           6.9136    2.0276    0.0000 H       1  UNL1        0.0279
     34 H           6.1317    1.6309    0.0000 H       1  UNL1        0.0279
     35 H           1.6120   -1.6830    0.0000 H       1  UNL1        0.0532
     36 H           2.5420   -2.2200    0.0000 H       1  UNL1        0.0532
@<TRIPOS>BOND
     1     1     7   ar
     2     1    12   ar
     3     2     3    1
     4     2     4    1
     5     2     8    1
     6     2    10    1
     7     3     5    1
     8     3     9    1
     9     3    17    1
    10     4     7    1
    11     4    18    1
    12     4    19    1
    13     5     6    1
    14     5    20    1
    15     5    21    1
    16     6     7   ar
    17     6    11   ar
    18     8    22    1
    19     8    23    1
    20     8    24    1
    21     9    13    1
    22     9    14    2
    23    10    16    2
    24    10    25    1
    25    11    12   ar
    26    11    15    1
    27    12    26    1
    28    13    27    1
    29    13    28    1
    30    13    29    1
    31    14    30    1
    32    14    31    1
    33    15    32    1
    34    15    33    1
    35    15    34    1
    36    16    35    1
    37    16    36    1
