@<TRIPOS>MOLECULE
IMPHY006015
 74 78 0 0 0
SMALL
GASTEIGER

@<TRIPOS>ATOM
      1 O           8.1101   -2.7787    0.0000 O.3     1  UNL1       -0.3366
      2 O           7.2441   -0.2787    0.0000 O.3     1  UNL1       -0.3313
      3 O           6.3781   -2.7787    0.0000 O.3     1  UNL1       -0.3405
      4 O           6.3781   -1.7787    0.0000 O.3     1  UNL1       -0.4606
      5 O           9.8422   -1.7787    0.0000 O.3     1  UNL1       -0.3863
      6 O           9.8422    0.2213    0.0000 O.3     1  UNL1       -0.3865
      7 O           8.1101   -4.7787    0.0000 O.3     1  UNL1       -0.3841
      8 O           6.3781   -5.7787    0.0000 O.3     1  UNL1       -0.3864
      9 O           4.6460   -4.7787    0.0000 O.3     1  UNL1       -0.3865
     10 O           8.9761    1.7213    0.0000 O.3     1  UNL1       -0.3924
     11 O           3.7800   -3.2787    0.0000 O.3     1  UNL1       -0.3924
     12 O           4.6038    1.2733    0.0000 O.3     1  UNL1       -0.4828
     13 O           2.8383   -1.7514    0.0000 O.3     1  UNL1       -0.5058
     14 O           2.0000   -0.2167    0.0000 O.2     1  UNL1       -0.2917
     15 O           3.7552    5.7766    0.0000 O.3     1  UNL1       -0.5068
     16 C           8.1101   -1.7787    0.0000 C.3     1  UNL1        0.1519
     17 C           8.9761   -1.2787    0.0000 C.3     1  UNL1        0.1155
     18 C           8.9761   -0.2787    0.0000 C.3     1  UNL1        0.1120
     19 C           7.2441   -3.2787    0.0000 C.3     1  UNL1        0.1886
     20 C           7.2441   -4.2787    0.0000 C.3     1  UNL1        0.1341
     21 C           7.2441   -1.2787    0.0000 C.3     1  UNL1        0.2312
     22 C           8.1101    0.2213    0.0000 C.3     1  UNL1        0.1140
     23 C           6.3781   -4.7787    0.0000 C.3     1  UNL1        0.1141
     24 C           5.5120   -4.2787    0.0000 C.3     1  UNL1        0.1119
     25 C           5.5120   -3.2787    0.0000 C.3     1  UNL1        0.1130
     26 C           8.1101    1.2213    0.0000 C.3     1  UNL1        0.0731
     27 C           4.6460   -2.7787    0.0000 C.3     1  UNL1        0.0730
     28 C           5.5120   -1.2787    0.0000 C.ar    1  UNL1        0.1310
     29 C           5.5080   -0.2370    0.0000 C.ar    1  UNL1        0.0229
     30 C           4.6080   -1.7960    0.0000 C.ar    1  UNL1        0.0226
     31 C           4.6000    0.2733    0.0000 C.ar    1  UNL1        0.1389
     32 C           3.7320   -0.2234    0.0000 C.ar    1  UNL1        0.1007
     33 C           3.7398    1.7766    0.0000 C.3     1  UNL1        0.1322
     34 C           3.7120   -1.2648    0.0000 C.ar    1  UNL1        0.1343
     35 C           2.8718    1.2800    0.0000 C.3     1  UNL1        0.0520
     36 C           2.8680    0.2800    0.0000 C.2     1  UNL1        0.1740
     37 C           3.7436    2.7766    0.0000 C.ar    1  UNL1       -0.0067
     38 C           4.6116    3.2733    0.0000 C.ar    1  UNL1       -0.0516
     39 C           2.8795    3.2800    0.0000 C.ar    1  UNL1       -0.0516
     40 C           4.6154    4.2733    0.0000 C.ar    1  UNL1       -0.0198
     41 C           2.8834    4.2800    0.0000 C.ar    1  UNL1       -0.0198
     42 C           3.7513    4.7766    0.0000 C.ar    1  UNL1        0.1169
     43 H           7.5732   -2.0887    0.0000 H       1  UNL1        0.0687
     44 H           8.9761   -1.8987    0.0000 H       1  UNL1        0.0648
     45 H           9.5131   -0.5887    0.0000 H       1  UNL1        0.0647
     46 H           7.2441   -2.6587    0.0000 H       1  UNL1        0.0938
     47 H           7.2441   -4.8987    0.0000 H       1  UNL1        0.0671
     48 H           6.7072   -0.9687    0.0000 H       1  UNL1        0.1084
     49 H           7.5732    0.5313    0.0000 H       1  UNL1        0.0647
     50 H           5.8411   -5.0887    0.0000 H       1  UNL1        0.0648
     51 H           4.9751   -3.9687    0.0000 H       1  UNL1        0.0647
     52 H           5.5120   -2.6587    0.0000 H       1  UNL1        0.0647
     53 H           7.8981    1.8039    0.0000 H       1  UNL1        0.0584
     54 H           7.4995    1.1137    0.0000 H       1  UNL1        0.0584
     55 H           5.0445   -2.3037    0.0000 H       1  UNL1        0.0584
     56 H           4.2475   -2.3037    0.0000 H       1  UNL1        0.0584
     57 H          10.3791   -1.4687    0.0000 H       1  UNL1        0.2100
     58 H          10.3791   -0.0887    0.0000 H       1  UNL1        0.2100
     59 H           8.1101   -5.3987    0.0000 H       1  UNL1        0.2101
     60 H           5.8411   -6.0887    0.0000 H       1  UNL1        0.2100
     61 H           4.6460   -5.3987    0.0000 H       1  UNL1        0.2100
     62 H           8.9761    2.3413    0.0000 H       1  UNL1        0.2095
     63 H           3.2431   -2.9687    0.0000 H       1  UNL1        0.2095
     64 H           6.0426    0.0771    0.0000 H       1  UNL1        0.0691
     65 H           4.6032   -2.4160    0.0000 H       1  UNL1        0.0691
     66 H           4.2779    2.0846    0.0000 H       1  UNL1        0.0789
     67 H           2.6620    1.8634    0.0000 H       1  UNL1        0.0385
     68 H           2.2608    1.1747    0.0000 H       1  UNL1        0.0385
     69 H           2.3062   -1.4331    0.0000 H       1  UNL1        0.2922
     70 H           5.1473    2.9612    0.0000 H       1  UNL1        0.0623
     71 H           2.3414    2.9720    0.0000 H       1  UNL1        0.0623
     72 H           5.1535    4.5812    0.0000 H       1  UNL1        0.0654
     73 H           2.3476    4.5920    0.0000 H       1  UNL1        0.0654
     74 H           3.2194    6.0887    0.0000 H       1  UNL1        0.2921
@<TRIPOS>BOND
     1    16     1    1
     2    19     1    1
     3     2    21    1
     4     2    22    1
     5     3    19    1
     6     3    25    1
     7    21     4    1
     8     4    28    1
     9    17     5    1
    10     5    57    1
    11    18     6    1
    12     6    58    1
    13    20     7    1
    14     7    59    1
    15    23     8    1
    16     8    60    1
    17    24     9    1
    18     9    61    1
    19    10    26    1
    20    10    62    1
    21    11    27    1
    22    11    63    1
    23    12    31    1
    24    12    33    1
    25    13    34    1
    26    13    69    1
    27    14    36    2
    28    15    42    1
    29    15    74    1
    30    16    17    1
    31    16    21    1
    32    16    43    1
    33    17    18    1
    34    17    44    1
    35    18    22    1
    36    18    45    1
    37    19    20    1
    38    19    46    1
    39    20    23    1
    40    20    47    1
    41    21    48    1
    42    22    26    1
    43    22    49    1
    44    23    24    1
    45    23    50    1
    46    24    25    1
    47    24    51    1
    48    25    27    1
    49    25    52    1
    50    26    53    1
    51    26    54    1
    52    27    55    1
    53    27    56    1
    54    28    29   ar
    55    28    30   ar
    56    29    31   ar
    57    29    64    1
    58    30    34   ar
    59    30    65    1
    60    31    32   ar
    61    32    34   ar
    62    32    36    1
    63    33    35    1
    64    33    37    1
    65    33    66    1
    66    35    36    1
    67    35    67    1
    68    35    68    1
    69    37    38   ar
    70    37    39   ar
    71    38    40   ar
    72    38    70    1
    73    39    41   ar
    74    39    71    1
    75    40    42   ar
    76    40    72    1
    77    41    42   ar
    78    41    73    1
