@<TRIPOS>MOLECULE
IMPHY008248
 70 72 0 0 0
SMALL
GASTEIGER

@<TRIPOS>ATOM
      1 O           5.9184   -2.1296    0.0000 O.3     1  UNL1       -0.3420
      2 O           6.5051    1.5925    0.0000 O.3     1  UNL1       -0.4535
      3 O           7.7927   -1.8520    0.0000 O.3     1  UNL1       -0.3616
      4 O           8.2206   -0.9960    0.0000 O.3     1  UNL1       -0.4519
      5 O           4.8221    1.4732    0.0000 O.3     1  UNL1       -0.4545
      6 O           3.5562   -0.0118    0.0000 O.3     1  UNL1       -0.3850
      7 O           8.0928    2.4016    0.0000 O.2     1  UNL1       -0.2453
      8 O           8.9098   -2.5850    0.0000 O.2     1  UNL1       -0.2453
      9 O           3.2467    0.7534    0.0000 O.2     1  UNL1       -0.2505
     10 C           6.7987   -1.7427    0.0000 C.3     1  UNL1        0.2088
     11 C           6.4564   -2.6824    0.0000 C.3     1  UNL1        0.0162
     12 C           4.9945   -1.8630    0.0000 C.3     1  UNL1        0.0652
     13 C           7.2271   -0.8819    0.0000 C.3     1  UNL1        0.1674
     14 C           7.0051    0.0537    0.0000 C.3     1  UNL1        0.0731
     15 C           5.4585   -2.7490    0.0000 C.3     1  UNL1       -0.0188
     16 C           6.1960    0.6415    0.0000 C.3     1  UNL1        0.1533
     17 C           4.5514   -0.1099    0.0000 C.3     1  UNL1        0.1059
     18 C           4.4555   -1.0667    0.0000 C.3     1  UNL1        0.0058
     19 C           5.2376    0.5636    0.0000 C.3     1  UNL1        0.1686
     20 C           7.8141    0.6415    0.0000 C.2     1  UNL1        0.0399
     21 C           7.0568   -3.4821    0.0000 C.3     1  UNL1       -0.0573
     22 C           3.8521    0.6049    0.0000 C.3     1  UNL1       -0.0324
     23 C           7.5051    1.5925    0.0000 C.2     1  UNL1        0.3355
     24 C           8.7651    0.3325    0.0000 C.2     1  UNL1       -0.0882
     25 C           9.0239   -1.5916    0.0000 C.2     1  UNL1        0.3350
     26 C           3.8266    1.5680    0.0000 C.2     1  UNL1        0.3104
     27 C           3.4110    2.4776    0.0000 C.3     1  UNL1        0.0534
     28 C           9.9413   -1.1937    0.0000 C.2     1  UNL1        0.0294
     29 C           2.4156    2.5725    0.0000 C.3     1  UNL1       -0.0432
     30 C           3.9910    3.2923    0.0000 C.3     1  UNL1       -0.0523
     31 C          10.0555   -0.2003    0.0000 C.3     1  UNL1       -0.0333
     32 C          10.7446   -1.7893    0.0000 C.2     1  UNL1       -0.0774
     33 C           2.0000    3.4821    0.0000 C.3     1  UNL1       -0.0645
     34 C          10.6305   -2.7828    0.0000 C.3     1  UNL1       -0.0461
     35 H           7.0697   -2.5914    0.0000 H       1  UNL1        0.0352
     36 H           4.2649   -2.2991    0.0000 H       1  UNL1        0.0598
     37 H           7.5229   -1.4268    0.0000 H       1  UNL1        0.0796
     38 H           7.6927   -0.4459    0.0000 H       1  UNL1        0.0426
     39 H           4.8748   -2.9580    0.0000 H       1  UNL1        0.0294
     40 H           5.5848   -3.3560    0.0000 H       1  UNL1        0.0294
     41 H           5.6690    1.3083    0.0000 H       1  UNL1        0.0780
     42 H           3.8825   -0.8299    0.0000 H       1  UNL1        0.0319
     43 H           4.0638   -1.5473    0.0000 H       1  UNL1        0.0319
     44 H           6.0368    1.0984    0.0000 H       1  UNL1        0.0801
     45 H           6.5610   -3.8544    0.0000 H       1  UNL1        0.0234
     46 H           7.4291   -3.9779    0.0000 H       1  UNL1        0.0234
     47 H           7.5526   -3.1098    0.0000 H       1  UNL1        0.0234
     48 H           4.2953    1.0385    0.0000 H       1  UNL1        0.0258
     49 H           3.4185    1.0481    0.0000 H       1  UNL1        0.0258
     50 H           3.4089    0.1714    0.0000 H       1  UNL1        0.0258
     51 H           8.0421   -2.4196    0.0000 H       1  UNL1        0.2129
     52 H           3.1950   -0.5157    0.0000 H       1  UNL1        0.2103
     53 H           8.8940   -0.2740    0.0000 H       1  UNL1        0.0540
     54 H           9.2259    0.7473    0.0000 H       1  UNL1        0.0540
     55 H           3.1534    3.0416    0.0000 H       1  UNL1        0.0410
     56 H           1.8154    2.4167    0.0000 H       1  UNL1        0.0270
     57 H           2.4648    1.9545    0.0000 H       1  UNL1        0.0270
     58 H           4.4961    2.9327    0.0000 H       1  UNL1        0.0238
     59 H           4.3505    3.7974    0.0000 H       1  UNL1        0.0238
     60 H           3.4859    3.6518    0.0000 H       1  UNL1        0.0238
     61 H          10.6714   -0.2710    0.0000 H       1  UNL1        0.0280
     62 H          10.1263    0.4157    0.0000 H       1  UNL1        0.0280
     63 H           9.4395   -0.1295    0.0000 H       1  UNL1        0.0280
     64 H          11.3134   -1.5426    0.0000 H       1  UNL1        0.0574
     65 H           2.5639    3.7397    0.0000 H       1  UNL1        0.0230
     66 H           1.7424    4.0460    0.0000 H       1  UNL1        0.0230
     67 H           1.4361    3.2244    0.0000 H       1  UNL1        0.0230
     68 H          10.0145   -2.7120    0.0000 H       1  UNL1        0.0272
     69 H          10.5597   -3.3987    0.0000 H       1  UNL1        0.0272
     70 H          11.2464   -2.8535    0.0000 H       1  UNL1        0.0272
@<TRIPOS>BOND
     1     1    10    1
     2     1    12    1
     3     2    16    1
     4     2    23    1
     5    10     3    1
     6     3    51    1
     7    13     4    1
     8     4    25    1
     9    19     5    1
    10     5    26    1
    11    17     6    1
    12     6    52    1
    13     7    23    2
    14     8    25    2
    15     9    26    2
    16    10    11    1
    17    10    13    1
    18    11    15    1
    19    11    21    1
    20    11    35    1
    21    12    15    1
    22    12    18    1
    23    12    36    1
    24    13    14    1
    25    13    37    1
    26    14    16    1
    27    14    20    1
    28    14    38    1
    29    15    39    1
    30    15    40    1
    31    16    19    1
    32    16    41    1
    33    17    18    1
    34    17    19    1
    35    17    22    1
    36    18    42    1
    37    18    43    1
    38    19    44    1
    39    20    23    1
    40    20    24    2
    41    21    45    1
    42    21    46    1
    43    21    47    1
    44    22    48    1
    45    22    49    1
    46    22    50    1
    47    24    53    1
    48    24    54    1
    49    25    28    1
    50    26    27    1
    51    27    29    1
    52    27    30    1
    53    27    55    1
    54    28    31    1
    55    28    32    2
    56    29    33    1
    57    29    56    1
    58    29    57    1
    59    30    58    1
    60    30    59    1
    61    30    60    1
    62    31    61    1
    63    31    62    1
    64    31    63    1
    65    32    34    1
    66    32    64    1
    67    33    65    1
    68    33    66    1
    69    33    67    1
    70    34    68    1
    71    34    69    1
    72    34    70    1
