@<TRIPOS>MOLECULE
IMPHY014787
 34 37 0 0 0
SMALL
GASTEIGER

@<TRIPOS>ATOM
      1 O           5.9065   -0.5423    0.0000 O.3     1  UNL1       -0.4830
      2 O           8.0505    1.5262    0.0000 O.3     1  UNL1       -0.4907
      3 O          10.6901   -0.8180    0.0000 O.3     1  UNL1       -0.4950
      4 O           2.4170    0.3619    0.0000 O.3     1  UNL1       -0.5066
      5 C           6.4033    0.9909    0.0000 C.3     1  UNL1        0.0629
      6 C           6.7123    0.0399    0.0000 C.3     1  UNL1        0.1385
      7 C           5.4092    0.9884    0.0000 C.ar    1  UNL1        0.0047
      8 C           7.0724    1.7341    0.0000 C.3     1  UNL1        0.1002
      9 C           7.6904   -0.1680    0.0000 C.ar    1  UNL1        0.0352
     10 C           5.1028    0.0427    0.0000 C.ar    1  UNL1        0.1285
     11 C           8.3596    0.5751    0.0000 C.ar    1  UNL1        0.1307
     12 C           4.7276    1.7679    0.0000 C.ar    1  UNL1       -0.0511
     13 C           7.9970   -1.1635    0.0000 C.ar    1  UNL1       -0.0481
     14 C           4.0936   -0.1891    0.0000 C.ar    1  UNL1        0.0219
     15 C           9.3816    0.3743    0.0000 C.ar    1  UNL1        0.0222
     16 C           3.7133    1.5595    0.0000 C.ar    1  UNL1       -0.0197
     17 C           3.3942    0.5744    0.0000 C.ar    1  UNL1        0.1203
     18 C           9.0142   -1.3879    0.0000 C.ar    1  UNL1       -0.0193
     19 C           9.7112   -0.6139    0.0000 C.ar    1  UNL1        0.1236
     20 C          11.0028   -1.7679    0.0000 C.3     1  UNL1        0.0788
     21 H           6.1504    1.5570    0.0000 H       1  UNL1        0.0423
     22 H           6.8404   -0.5667    0.0000 H       1  UNL1        0.0793
     23 H           7.3046    2.3089    0.0000 H       1  UNL1        0.0704
     24 H           6.5466    2.0626    0.0000 H       1  UNL1        0.0704
     25 H           4.9255    2.3554    0.0000 H       1  UNL1        0.0623
     26 H           7.5768   -1.6194    0.0000 H       1  UNL1        0.0624
     27 H           3.9094   -0.7811    0.0000 H       1  UNL1        0.0691
     28 H           9.7912    0.8398    0.0000 H       1  UNL1        0.0691
     29 H           3.2998    2.0215    0.0000 H       1  UNL1        0.0654
     30 H           9.2035   -1.9783    0.0000 H       1  UNL1        0.0654
     31 H           2.0000    0.8207    0.0000 H       1  UNL1        0.2921
     32 H          10.4139   -1.9617    0.0000 H       1  UNL1        0.0660
     33 H          11.1966   -2.3568    0.0000 H       1  UNL1        0.0660
     34 H          11.5917   -1.5740    0.0000 H       1  UNL1        0.0660
@<TRIPOS>BOND
     1     1     6    1
     2     1    10    1
     3     2     8    1
     4     2    11    1
     5     3    19    1
     6     3    20    1
     7     4    17    1
     8     4    31    1
     9     5     6    1
    10     5     7    1
    11     5     8    1
    12     5    21    1
    13     6     9    1
    14     6    22    1
    15     7    10   ar
    16     7    12   ar
    17     8    23    1
    18     8    24    1
    19     9    11   ar
    20     9    13   ar
    21    10    14   ar
    22    11    15   ar
    23    12    16   ar
    24    12    25    1
    25    13    18   ar
    26    13    26    1
    27    14    17   ar
    28    14    27    1
    29    15    19   ar
    30    15    28    1
    31    16    17   ar
    32    16    29    1
    33    18    19   ar
    34    18    30    1
    35    20    32    1
    36    20    33    1
    37    20    34    1
