@<TRIPOS>MOLECULE
IMPHY017186
 22 22 0 0 0
SMALL
GASTEIGER

@<TRIPOS>ATOM
      1 C           2.8660    1.0000    0.0000 C.ar    1  UNL1       -0.0476
      2 C           2.8660    2.0000    0.0000 C.3     1  UNL1       -0.0305
      3 C           3.7320    0.5000    0.0000 C.ar    1  UNL1       -0.0580
      4 C           2.0000    0.5000    0.0000 C.ar    1  UNL1       -0.0580
      5 C           2.8660   -1.0000    0.0000 C.ar    1  UNL1       -0.0256
      6 C           3.7320   -0.5000    0.0000 C.ar    1  UNL1       -0.0544
      7 C           2.0000   -0.5000    0.0000 C.ar    1  UNL1       -0.0544
      8 C           3.7320    2.5000    0.0000 C.3     1  UNL1       -0.0613
      9 C           2.8660   -2.0000    0.0000 C.2     1  UNL1       -0.0617
     10 C           2.0000   -2.5000    0.0000 C.2     1  UNL1       -0.0981
     11 H           2.6540    2.5826    0.0000 H       1  UNL1        0.0311
     12 H           2.2554    1.8923    0.0000 H       1  UNL1        0.0311
     13 H           4.2690    0.8100    0.0000 H       1  UNL1        0.0620
     14 H           1.4631    0.8100    0.0000 H       1  UNL1        0.0620
     15 H           4.2690   -0.8100    0.0000 H       1  UNL1        0.0624
     16 H           1.4631   -0.8100    0.0000 H       1  UNL1        0.0624
     17 H           4.0420    1.9631    0.0000 H       1  UNL1        0.0233
     18 H           4.2690    2.8100    0.0000 H       1  UNL1        0.0233
     19 H           3.4220    3.0369    0.0000 H       1  UNL1        0.0233
     20 H           3.4030   -2.3100    0.0000 H       1  UNL1        0.0618
     21 H           1.4631   -2.1900    0.0000 H       1  UNL1        0.0535
     22 H           2.0000   -3.1200    0.0000 H       1  UNL1        0.0535
@<TRIPOS>BOND
     1     1     2    1
     2     1     3   ar
     3     1     4   ar
     4     2     8    1
     5     2    11    1
     6     2    12    1
     7     3     6   ar
     8     3    13    1
     9     4     7   ar
    10     4    14    1
    11     5     6   ar
    12     5     7   ar
    13     5     9    1
    14     6    15    1
    15     7    16    1
    16     8    17    1
    17     8    18    1
    18     8    19    1
    19     9    10    2
    20     9    20    1
    21    10    21    1
    22    10    22    1
