@<TRIPOS>MOLECULE
IMPHY011300
 52 53 0 0 0
SMALL
GASTEIGER

@<TRIPOS>ATOM
      1 O           5.6714   -1.3003    0.0000 O.3     1  UNL1       -0.4562
      2 O           7.0727   -2.3183    0.0000 O.2     1  UNL1       -0.2505
      3 O           8.5193    0.7688    0.0000 O.2     1  UNL1       -0.2922
      4 C           5.3858   -4.0174    0.0000 C.3     1  UNL1       -0.0144
      5 C           4.5768   -3.4296    0.0000 C.3     1  UNL1       -0.0033
      6 C           5.4904   -3.0228    0.0000 C.3     1  UNL1        0.0688
      7 C           4.7981   -4.8264    0.0000 C.3     1  UNL1       -0.0585
      8 C           6.3804   -4.1219    0.0000 C.3     1  UNL1       -0.0585
      9 C           3.5823   -3.3250    0.0000 C.2     1  UNL1       -0.0809
     10 C           6.0782   -2.2138    0.0000 C.2     1  UNL1        0.3119
     11 C           2.9945   -4.1340    0.0000 C.2     1  UNL1       -0.0793
     12 C           6.2592   -0.4912    0.0000 C.3     1  UNL1        0.1315
     13 C           2.0000   -4.0295    0.0000 C.3     1  UNL1       -0.0440
     14 C           3.4013   -5.0476    0.0000 C.3     1  UNL1       -0.0440
     15 C           7.2592   -0.4912    0.0000 C.3     1  UNL1        0.0512
     16 C           5.9502    0.4598    0.0000 C.2     1  UNL1       -0.0255
     17 C           6.7592    1.0476    0.0000 C.2     1  UNL1        0.0013
     18 C           7.5682    0.4598    0.0000 C.2     1  UNL1        0.1634
     19 C           4.9991    0.7688    0.0000 C.3     1  UNL1       -0.0397
     20 C           6.7592    2.0476    0.0000 C.3     1  UNL1       -0.0058
     21 C           7.6252    2.5476    0.0000 C.2     1  UNL1       -0.0796
     22 C           7.6252    3.5476    0.0000 C.2     1  UNL1       -0.0659
     23 C           8.4913    4.0476    0.0000 C.2     1  UNL1       -0.0692
     24 C           8.4913    5.0476    0.0000 C.2     1  UNL1       -0.0987
     25 H           4.4798   -2.8172    0.0000 H       1  UNL1        0.0356
     26 H           5.1002   -2.5410    0.0000 H       1  UNL1        0.0425
     27 H           4.2965   -4.4619    0.0000 H       1  UNL1        0.0235
     28 H           4.4336   -5.3280    0.0000 H       1  UNL1        0.0235
     29 H           5.2996   -5.1908    0.0000 H       1  UNL1        0.0235
     30 H           6.3156   -4.7385    0.0000 H       1  UNL1        0.0235
     31 H           6.9970   -4.1867    0.0000 H       1  UNL1        0.0235
     32 H           6.4452   -3.5053    0.0000 H       1  UNL1        0.0235
     33 H           3.3301   -2.7586    0.0000 H       1  UNL1        0.0575
     34 H           5.6468   -0.3943    0.0000 H       1  UNL1        0.0786
     35 H           2.0648   -3.4129    0.0000 H       1  UNL1        0.0274
     36 H           1.3834   -3.9647    0.0000 H       1  UNL1        0.0274
     37 H           1.9352   -4.6461    0.0000 H       1  UNL1        0.0274
     38 H           2.8349   -5.2998    0.0000 H       1  UNL1        0.0274
     39 H           3.6534   -5.6140    0.0000 H       1  UNL1        0.0274
     40 H           3.9677   -4.7954    0.0000 H       1  UNL1        0.0274
     41 H           7.1944   -1.1078    0.0000 H       1  UNL1        0.0385
     42 H           7.8657   -0.6202    0.0000 H       1  UNL1        0.0385
     43 H           5.1907    1.3585    0.0000 H       1  UNL1        0.0276
     44 H           4.4095    0.9604    0.0000 H       1  UNL1        0.0276
     45 H           4.8075    0.1792    0.0000 H       1  UNL1        0.0276
     46 H           6.5472    2.6302    0.0000 H       1  UNL1        0.0357
     47 H           6.1486    1.9399    0.0000 H       1  UNL1        0.0357
     48 H           8.1622    2.2376    0.0000 H       1  UNL1        0.0575
     49 H           7.0883    3.8576    0.0000 H       1  UNL1        0.0614
     50 H           9.0282    3.7376    0.0000 H       1  UNL1        0.0612
     51 H           9.0282    5.3576    0.0000 H       1  UNL1        0.0535
     52 H           7.9543    5.3576    0.0000 H       1  UNL1        0.0535
@<TRIPOS>BOND
     1     1    10    1
     2    12     1    1
     3     2    10    2
     4     3    18    2
     5     4     5    1
     6     4     6    1
     7     4     7    1
     8     4     8    1
     9     5     6    1
    10     5     9    1
    11     5    25    1
    12     6    10    1
    13     6    26    1
    14     7    27    1
    15     7    28    1
    16     7    29    1
    17     8    30    1
    18     8    31    1
    19     8    32    1
    20     9    11    2
    21     9    33    1
    22    11    13    1
    23    11    14    1
    24    12    15    1
    25    12    16    1
    26    12    34    1
    27    13    35    1
    28    13    36    1
    29    13    37    1
    30    14    38    1
    31    14    39    1
    32    14    40    1
    33    15    18    1
    34    15    41    1
    35    15    42    1
    36    16    17    2
    37    16    19    1
    38    17    18    1
    39    17    20    1
    40    19    43    1
    41    19    44    1
    42    19    45    1
    43    20    21    1
    44    20    46    1
    45    20    47    1
    46    21    22    2
    47    21    48    1
    48    22    23    1
    49    22    49    1
    50    23    24    2
    51    23    50    1
    52    24    51    1
    53    24    52    1
