@<TRIPOS>MOLECULE
IMPHY000428
 72 74 0 0 0
SMALL
GASTEIGER

@<TRIPOS>ATOM
      1 O           6.8671   -1.0950    0.0000 O.3     1  UNL1       -0.3096
      2 O           5.1350   -1.0950    0.0000 O.3     1  UNL1       -0.3404
      3 O           6.0010    0.4050    0.0000 O.2     1  UNL1       -0.4702
      4 O           6.8671   -3.0950    0.0000 O.3     1  UNL1       -0.3841
      5 O           5.1350   -4.0950    0.0000 O.3     1  UNL1       -0.3864
      6 O           3.4030   -3.0950    0.0000 O.3     1  UNL1       -0.3865
      7 O           2.5369   -1.5950    0.0000 O.3     1  UNL1       -0.3924
      8 O          10.3312    1.9050    0.0000 O.3     1  UNL1       -0.4643
      9 O           6.0010    3.4050    0.0000 O.3     1  UNL1       -0.4646
     10 O           9.4651    0.4050    0.0000 O.2     1  UNL1       -0.2508
     11 O           7.7331    3.4050    0.0000 O.2     1  UNL1       -0.2452
     12 O          13.7953   -1.0950    0.0000 O.3     1  UNL1       -0.5033
     13 O          15.5273   -0.0950    0.0000 O.3     1  UNL1       -0.5033
     14 C           7.7331    0.4050    0.0000 C.3     1  UNL1        0.0290
     15 C           7.7331    1.4050    0.0000 C.3     1  UNL1        0.0123
     16 C           6.8671   -0.0950    0.0000 C.3     1  UNL1        0.2068
     17 C           6.0010   -1.5950    0.0000 C.3     1  UNL1        0.1918
     18 C           6.0010   -2.5950    0.0000 C.3     1  UNL1        0.1342
     19 C           5.1350   -3.0950    0.0000 C.3     1  UNL1        0.1141
     20 C           4.2690   -2.5950    0.0000 C.3     1  UNL1        0.1119
     21 C           8.5991   -0.0950    0.0000 C.3     1  UNL1       -0.0468
     22 C           4.2690   -1.5950    0.0000 C.3     1  UNL1        0.1130
     23 C           6.8671    1.9050    0.0000 C.2     1  UNL1        0.0748
     24 C           8.5991    1.9050    0.0000 C.3     1  UNL1        0.0525
     25 C           6.0010    1.4050    0.0000 C.2     1  UNL1        0.0981
     26 C           3.4030   -1.0950    0.0000 C.3     1  UNL1        0.0730
     27 C           8.5991   -1.0950    0.0000 C.3     1  UNL1       -0.0648
     28 C           9.4651    1.4050    0.0000 C.2     1  UNL1        0.3077
     29 C           6.8671    2.9050    0.0000 C.2     1  UNL1        0.3381
     30 C          11.1972    1.4050    0.0000 C.3     1  UNL1        0.0964
     31 C          12.0632    1.9050    0.0000 C.3     1  UNL1        0.0069
     32 C           6.0010    4.4050    0.0000 C.3     1  UNL1        0.0820
     33 C          12.9292    1.4050    0.0000 C.ar    1  UNL1       -0.0405
     34 C          12.9292    0.4050    0.0000 C.ar    1  UNL1       -0.0132
     35 C          13.7953    1.9050    0.0000 C.ar    1  UNL1       -0.0548
     36 C          13.7953   -0.0950    0.0000 C.ar    1  UNL1        0.1585
     37 C          14.6613    1.4050    0.0000 C.ar    1  UNL1       -0.0163
     38 C          14.6613    0.4050    0.0000 C.ar    1  UNL1        0.1582
     39 H           8.2700    0.7150    0.0000 H       1  UNL1        0.0367
     40 H           7.7331    2.0250    0.0000 H       1  UNL1        0.0362
     41 H           7.4040   -0.4050    0.0000 H       1  UNL1        0.1059
     42 H           6.0010   -0.9750    0.0000 H       1  UNL1        0.0939
     43 H           6.0010   -3.2150    0.0000 H       1  UNL1        0.0671
     44 H           4.5981   -3.4050    0.0000 H       1  UNL1        0.0648
     45 H           3.7320   -2.2850    0.0000 H       1  UNL1        0.0647
     46 H           9.2097   -0.2027    0.0000 H       1  UNL1        0.0267
     47 H           8.8112    0.4876    0.0000 H       1  UNL1        0.0267
     48 H           4.2690   -0.9750    0.0000 H       1  UNL1        0.0647
     49 H           8.9976    2.3800    0.0000 H       1  UNL1        0.0384
     50 H           8.2006    2.3800    0.0000 H       1  UNL1        0.0384
     51 H           5.4641    1.7150    0.0000 H       1  UNL1        0.1029
     52 H           3.8015   -0.6201    0.0000 H       1  UNL1        0.0584
     53 H           3.0044   -0.6201    0.0000 H       1  UNL1        0.0584
     54 H           7.9791   -1.0950    0.0000 H       1  UNL1        0.0230
     55 H           8.5991   -1.7150    0.0000 H       1  UNL1        0.0230
     56 H           9.2191   -1.0950    0.0000 H       1  UNL1        0.0230
     57 H           6.8671   -3.7150    0.0000 H       1  UNL1        0.2101
     58 H           4.5981   -4.4050    0.0000 H       1  UNL1        0.2100
     59 H           3.4030   -3.7150    0.0000 H       1  UNL1        0.2100
     60 H           2.0000   -1.2850    0.0000 H       1  UNL1        0.2095
     61 H          10.7987    0.9301    0.0000 H       1  UNL1        0.0701
     62 H          11.5957    0.9301    0.0000 H       1  UNL1        0.0701
     63 H          12.4617    2.3800    0.0000 H       1  UNL1        0.0346
     64 H          11.6647    2.3800    0.0000 H       1  UNL1        0.0346
     65 H           6.6210    4.4050    0.0000 H       1  UNL1        0.0661
     66 H           6.0010    5.0250    0.0000 H       1  UNL1        0.0661
     67 H           5.3810    4.4050    0.0000 H       1  UNL1        0.0661
     68 H          12.3923    0.0950    0.0000 H       1  UNL1        0.0658
     69 H          13.7953    2.5250    0.0000 H       1  UNL1        0.0621
     70 H          15.1982    1.7150    0.0000 H       1  UNL1        0.0655
     71 H          14.3322   -1.4050    0.0000 H       1  UNL1        0.2923
     72 H          16.0643    0.2150    0.0000 H       1  UNL1        0.2923
@<TRIPOS>BOND
     1    16     1    1
     2    17     1    1
     3     2    17    1
     4     2    22    1
     5     3    16    1
     6     3    25    1
     7    18     4    1
     8     4    57    1
     9    19     5    1
    10     5    58    1
    11    20     6    1
    12     6    59    1
    13     7    26    1
    14     7    60    1
    15     8    28    1
    16     8    30    1
    17     9    29    1
    18     9    32    1
    19    10    28    2
    20    11    29    2
    21    12    36    1
    22    12    71    1
    23    13    38    1
    24    13    72    1
    25    14    15    1
    26    14    16    1
    27    14    21    1
    28    14    39    1
    29    15    23    1
    30    15    24    1
    31    15    40    1
    32    16    41    1
    33    17    18    1
    34    17    42    1
    35    18    19    1
    36    18    43    1
    37    19    20    1
    38    19    44    1
    39    20    22    1
    40    20    45    1
    41    21    27    1
    42    21    46    1
    43    21    47    1
    44    22    26    1
    45    22    48    1
    46    23    25    2
    47    23    29    1
    48    24    28    1
    49    24    49    1
    50    24    50    1
    51    25    51    1
    52    26    52    1
    53    26    53    1
    54    27    54    1
    55    27    55    1
    56    27    56    1
    57    30    31    1
    58    30    61    1
    59    30    62    1
    60    31    33    1
    61    31    63    1
    62    31    64    1
    63    32    65    1
    64    32    66    1
    65    32    67    1
    66    33    34   ar
    67    33    35   ar
    68    34    36   ar
    69    34    68    1
    70    35    37   ar
    71    35    69    1
    72    36    38   ar
    73    37    38   ar
    74    37    70    1
