@<TRIPOS>MOLECULE
IMPHY015614
 15 15 0 0 0
SMALL
GASTEIGER

@<TRIPOS>ATOM
      1 O           2.8090   -1.1739    0.0000 O.3     1  UNL1       -0.4644
      2 O           4.5691   -0.8952    0.0000 O.2     1  UNL1       -0.2505
      3 C           3.3090    0.3649    0.0000 C.3     1  UNL1        0.0567
      4 C           2.3090    0.3649    0.0000 C.3     1  UNL1       -0.0059
      5 C           2.0000   -0.5861    0.0000 C.3     1  UNL1        0.0932
      6 C           3.6180   -0.5861    0.0000 C.2     1  UNL1        0.3100
      7 C           3.8968    1.1739    0.0000 C.3     1  UNL1       -0.0522
      8 H           3.9214    0.2679    0.0000 H       1  UNL1        0.0412
      9 H           2.3738    0.9815    0.0000 H       1  UNL1        0.0306
     10 H           1.7026    0.4938    0.0000 H       1  UNL1        0.0306
     11 H           1.4336   -0.3340    0.0000 H       1  UNL1        0.0697
     12 H           1.6900   -1.1231    0.0000 H       1  UNL1        0.0697
     13 H           4.3984    0.8095    0.0000 H       1  UNL1        0.0238
     14 H           4.2612    1.6755    0.0000 H       1  UNL1        0.0238
     15 H           3.3952    1.5384    0.0000 H       1  UNL1        0.0238
@<TRIPOS>BOND
     1     1     5    1
     2     1     6    1
     3     2     6    2
     4     3     4    1
     5     3     6    1
     6     3     7    1
     7     3     8    1
     8     4     5    1
     9     4     9    1
    10     4    10    1
    11     5    11    1
    12     5    12    1
    13     7    13    1
    14     7    14    1
    15     7    15    1
