@<TRIPOS>MOLECULE
IMPHY013192
 52 56 0 0 0
SMALL
GASTEIGER

@<TRIPOS>ATOM
      1 O           4.7340    0.1520    0.0000 O.3     1  UNL1       -0.4806
      2 O           3.2118   -2.9279    0.0000 O.3     1  UNL1       -0.4878
      3 O           5.6521    2.7004    0.0000 O.3     1  UNL1       -0.4877
      4 O           2.8832    1.8256    0.0000 O.3     1  UNL1       -0.3728
      5 O           2.1360    1.6520    0.0000 O.2     1  UNL1       -0.2883
      6 O           4.7624   -5.6214    0.0000 O.3     1  UNL1       -0.3946
      7 O           2.0116    4.7889    0.0000 O.3     1  UNL1       -0.4914
      8 O           3.8149    5.8487    0.0000 O.3     1  UNL1       -0.5032
      9 C           3.8680    1.6520    0.0000 C.3     1  UNL1        0.1968
     10 C           4.7340    1.1520    0.0000 C.3     1  UNL1        0.1739
     11 C           4.2424   -3.0273    0.0000 C.3     1  UNL1        0.1090
     12 C           4.6571   -2.0785    0.0000 C.3     1  UNL1        0.0168
     13 C           3.8841   -1.3896    0.0000 C.ar    1  UNL1        0.0401
     14 C           3.8680   -0.3481    0.0000 C.ar    1  UNL1        0.1386
     15 C           3.0020    0.1520    0.0000 C.ar    1  UNL1        0.0629
     16 C           3.0020    1.1520    0.0000 C.2     1  UNL1        0.2063
     17 C           4.7491   -3.8894    0.0000 C.3     1  UNL1        0.0167
     18 C           3.8520    2.6935    0.0000 C.ar    1  UNL1        0.0405
     19 C           5.6440    1.6588    0.0000 C.3     1  UNL1        0.1299
     20 C           2.9860   -1.9173    0.0000 C.ar    1  UNL1        0.1277
     21 C           4.7500    3.2212    0.0000 C.ar    1  UNL1        0.1308
     22 C           2.0920   -0.3549    0.0000 C.ar    1  UNL1       -0.0442
     23 C           2.0840   -1.3965    0.0000 C.ar    1  UNL1       -0.0188
     24 C           4.2558   -4.7593    0.0000 C.3     1  UNL1        0.0501
     25 C           5.7491   -3.8817    0.0000 C.3     1  UNL1       -0.0569
     26 C           2.9000    3.2141    0.0000 C.ar    1  UNL1       -0.0064
     27 C           4.7584    4.3062    0.0000 C.ar    1  UNL1        0.0256
     28 C           2.8833    4.2989    0.0000 C.ar    1  UNL1        0.1619
     29 C           3.8187    4.8487    0.0000 C.ar    1  UNL1        0.1620
     30 C           2.0000    5.7888    0.0000 C.3     1  UNL1        0.0790
     31 H           5.2686    0.8378    0.0000 H       1  UNL1        0.0805
     32 H           3.9090   -3.5500    0.0000 H       1  UNL1        0.0739
     33 H           5.1960   -2.3851    0.0000 H       1  UNL1        0.0351
     34 H           5.0187   -1.5748    0.0000 H       1  UNL1        0.0351
     35 H           5.0632   -4.4239    0.0000 H       1  UNL1        0.0356
     36 H           5.8486    1.0735    0.0000 H       1  UNL1        0.0735
     37 H           6.2557    1.7602    0.0000 H       1  UNL1        0.0735
     38 H           1.5587   -0.0387    0.0000 H       1  UNL1        0.0627
     39 H           1.5458   -1.7044    0.0000 H       1  UNL1        0.0654
     40 H           3.7778   -4.3644    0.0000 H       1  UNL1        0.0561
     41 H           3.7839   -5.1614    0.0000 H       1  UNL1        0.0561
     42 H           5.7538   -4.5017    0.0000 H       1  UNL1        0.0234
     43 H           6.3690   -3.8769    0.0000 H       1  UNL1        0.0234
     44 H           5.7443   -3.2617    0.0000 H       1  UNL1        0.0234
     45 H           2.6712    2.4082    0.0000 H       1  UNL1        0.2114
     46 H           2.3692    2.8938    0.0000 H       1  UNL1        0.0660
     47 H           5.2965    4.6141    0.0000 H       1  UNL1        0.0692
     48 H           4.4566   -6.1607    0.0000 H       1  UNL1        0.2094
     49 H           4.3506    6.1607    0.0000 H       1  UNL1        0.2923
     50 H           2.6200    5.7960    0.0000 H       1  UNL1        0.0660
     51 H           1.9928    6.4088    0.0000 H       1  UNL1        0.0660
     52 H           1.3800    5.7817    0.0000 H       1  UNL1        0.0660
@<TRIPOS>BOND
     1     1    10    1
     2     1    14    1
     3     2    11    1
     4     2    20    1
     5     3    19    1
     6     3    21    1
     7     4     9    1
     8     4    45    1
     9     5    16    2
    10     6    24    1
    11     6    48    1
    12     7    28    1
    13     7    30    1
    14     8    29    1
    15     8    49    1
    16     9    10    1
    17     9    16    1
    18     9    18    1
    19    10    19    1
    20    10    31    1
    21    11    12    1
    22    11    17    1
    23    11    32    1
    24    12    13    1
    25    12    33    1
    26    12    34    1
    27    13    14   ar
    28    13    20   ar
    29    14    15   ar
    30    15    16    1
    31    15    22   ar
    32    17    24    1
    33    17    25    1
    34    17    35    1
    35    18    21   ar
    36    18    26   ar
    37    19    36    1
    38    19    37    1
    39    20    23   ar
    40    21    27   ar
    41    22    23   ar
    42    22    38    1
    43    23    39    1
    44    24    40    1
    45    24    41    1
    46    25    42    1
    47    25    43    1
    48    25    44    1
    49    26    28   ar
    50    26    46    1
    51    27    29   ar
    52    27    47    1
    53    28    29   ar
    54    30    50    1
    55    30    51    1
    56    30    52    1
