@<TRIPOS>MOLECULE
IMPHY010327
 52 56 0 0 0
SMALL
GASTEIGER

@<TRIPOS>ATOM
      1 O           8.0628   -0.4910    0.0000 O.3     1  UNL1       -0.4869
      2 O           4.9867    1.2530    0.0000 O.3     1  UNL1       -0.4808
      3 O           5.0145   -2.2830    0.0000 O.2     1  UNL1       -0.4212
      4 O           6.5182   -3.1432    0.0000 O.2     1  UNL1       -0.2914
      5 O           3.4762   -3.1590    0.0000 O.2     1  UNL1       -0.2452
      6 C           8.0698   -2.2911    0.0000 C.3     1  UNL1        0.0562
      7 C           8.5906   -1.3890    0.0000 C.3     1  UNL1        0.1070
      8 C           6.5214   -1.3730    0.0000 C.ar    1  UNL1        0.1031
      9 C           7.0214   -0.5070    0.0000 C.ar    1  UNL1        0.1456
     10 C           6.5214    0.3590    0.0000 C.ar    1  UNL1        0.0597
     11 C           5.5214    0.3590    0.0000 C.ar    1  UNL1        0.1436
     12 C           7.0282   -2.2830    0.0000 C.2     1  UNL1        0.1765
     13 C           5.5005    2.1590    0.0000 C.3     1  UNL1        0.1235
     14 C           5.0214   -0.5070    0.0000 C.ar    1  UNL1        0.0685
     15 C           5.5214   -1.3730    0.0000 C.ar    1  UNL1        0.1572
     16 C           8.5664   -3.1590    0.0000 C.3     1  UNL1       -0.0519
     17 C           7.0560    1.2530    0.0000 C.2     1  UNL1       -0.0478
     18 C           6.5422    2.1590    0.0000 C.2     1  UNL1       -0.0408
     19 C           9.5906   -1.3851    0.0000 C.3     1  UNL1       -0.0271
     20 C           3.9798   -0.4910    0.0000 C.ar    1  UNL1        0.0031
     21 C           5.4967    3.1590    0.0000 C.3     1  UNL1       -0.0215
     22 C           4.6326    2.6557    0.0000 C.3     1  UNL1       -0.0215
     23 C           3.4521   -1.3890    0.0000 C.ar    1  UNL1        0.0314
     24 C           3.4899    0.3808    0.0000 C.ar    1  UNL1       -0.0169
     25 C           3.9729   -2.2911    0.0000 C.ar    1  UNL1        0.3378
     26 C           3.9999    1.2410    0.0000 C.ar    1  UNL1       -0.0540
     27 C           2.4900    0.3924    0.0000 C.ar    1  UNL1       -0.0540
     28 C           3.5099    2.1127    0.0000 C.ar    1  UNL1       -0.0612
     29 C           2.0000    1.2641    0.0000 C.ar    1  UNL1       -0.0612
     30 C           2.5100    2.1243    0.0000 C.ar    1  UNL1       -0.0617
     31 H           8.6898   -2.2923    0.0000 H       1  UNL1        0.0414
     32 H           8.8975   -0.8503    0.0000 H       1  UNL1        0.0737
     33 H           8.0283   -3.4669    0.0000 H       1  UNL1        0.0238
     34 H           8.8744   -3.6971    0.0000 H       1  UNL1        0.0238
     35 H           9.1046   -2.8511    0.0000 H       1  UNL1        0.0238
     36 H           7.6760    1.2458    0.0000 H       1  UNL1        0.0624
     37 H           6.8542    2.6948    0.0000 H       1  UNL1        0.0611
     38 H           9.5930   -2.0051    0.0000 H       1  UNL1        0.0265
     39 H          10.2106   -1.3828    0.0000 H       1  UNL1        0.0265
     40 H           9.5882   -0.7651    0.0000 H       1  UNL1        0.0265
     41 H           4.9405    3.1938    0.0000 H       1  UNL1        0.0271
     42 H           4.0945    2.9636    0.0000 H       1  UNL1        0.0271
     43 H           4.3247    2.1176    0.0000 H       1  UNL1        0.0271
     44 H           6.1167    3.1614    0.0000 H       1  UNL1        0.0271
     45 H           5.4943    3.7790    0.0000 H       1  UNL1        0.0271
     46 H           4.8767    3.1566    0.0000 H       1  UNL1        0.0271
     47 H           2.8321   -1.3866    0.0000 H       1  UNL1        0.0695
     48 H           4.6198    1.2338    0.0000 H       1  UNL1        0.0624
     49 H           2.1738   -0.1410    0.0000 H       1  UNL1        0.0624
     50 H           3.8261    2.6460    0.0000 H       1  UNL1        0.0618
     51 H           1.3800    1.2713    0.0000 H       1  UNL1        0.0618
     52 H           2.2062    2.6648    0.0000 H       1  UNL1        0.0618
@<TRIPOS>BOND
     1     1     7    1
     2     1     9    1
     3     2    11    1
     4     2    13    1
     5     3    15   ar
     6     3    25   ar
     7     4    12    2
     8     5    25    2
     9     6     7    1
    10     6    12    1
    11     6    16    1
    12     6    31    1
    13     7    19    1
    14     7    32    1
    15     8     9   ar
    16     8    12    1
    17     8    15   ar
    18     9    10   ar
    19    10    11   ar
    20    10    17    1
    21    11    14   ar
    22    13    18    1
    23    13    21    1
    24    13    22    1
    25    14    15   ar
    26    14    20   ar
    27    16    33    1
    28    16    34    1
    29    16    35    1
    30    17    18    2
    31    17    36    1
    32    18    37    1
    33    19    38    1
    34    19    39    1
    35    19    40    1
    36    20    23   ar
    37    20    24    1
    38    21    44    1
    39    21    45    1
    40    21    46    1
    41    22    41    1
    42    22    42    1
    43    22    43    1
    44    23    25   ar
    45    23    47    1
    46    24    26   ar
    47    24    27   ar
    48    26    28   ar
    49    26    48    1
    50    27    29   ar
    51    27    49    1
    52    28    30   ar
    53    28    50    1
    54    29    30   ar
    55    29    51    1
    56    30    52    1
