@<TRIPOS>MOLECULE
IMPHY016309
 25 24 0 0 0
SMALL
GASTEIGER

@<TRIPOS>ATOM
      1 C           4.5981    0.2500    0.0000 C.2     1  UNL1       -0.0544
      2 C           2.8660    0.2500    0.0000 C.3     1  UNL1       -0.0371
      3 C           3.7320    0.7500    0.0000 C.2     1  UNL1       -0.0813
      4 C           5.4641    0.7500    0.0000 C.2     1  UNL1       -0.0604
      5 C           6.3301    0.2500    0.0000 C.2     1  UNL1       -0.0755
      6 C           4.5981   -0.7500    0.0000 C.3     1  UNL1       -0.0400
      7 C           2.0000    0.7500    0.0000 C.3     1  UNL1       -0.0618
      8 C           7.1962    0.7500    0.0000 C.3     1  UNL1       -0.0437
      9 C           6.3301   -0.7500    0.0000 C.3     1  UNL1       -0.0437
     10 H           2.4675   -0.2249    0.0000 H       1  UNL1        0.0305
     11 H           3.2646   -0.2249    0.0000 H       1  UNL1        0.0305
     12 H           3.7320    1.3700    0.0000 H       1  UNL1        0.0575
     13 H           5.4641    1.3700    0.0000 H       1  UNL1        0.0620
     14 H           3.9781   -0.7500    0.0000 H       1  UNL1        0.0277
     15 H           4.5981   -1.3700    0.0000 H       1  UNL1        0.0277
     16 H           5.2181   -0.7500    0.0000 H       1  UNL1        0.0277
     17 H           2.3100    1.2869    0.0000 H       1  UNL1        0.0233
     18 H           1.4631    1.0600    0.0000 H       1  UNL1        0.0233
     19 H           1.6900    0.2131    0.0000 H       1  UNL1        0.0233
     20 H           7.5062    0.2131    0.0000 H       1  UNL1        0.0274
     21 H           7.7331    1.0600    0.0000 H       1  UNL1        0.0274
     22 H           6.8862    1.2869    0.0000 H       1  UNL1        0.0274
     23 H           5.7101   -0.7500    0.0000 H       1  UNL1        0.0274
     24 H           6.3301   -1.3700    0.0000 H       1  UNL1        0.0274
     25 H           6.9501   -0.7500    0.0000 H       1  UNL1        0.0274
@<TRIPOS>BOND
     1     1     3    2
     2     1     4    1
     3     1     6    1
     4     2     3    1
     5     2     7    1
     6     2    10    1
     7     2    11    1
     8     3    12    1
     9     4     5    2
    10     4    13    1
    11     5     8    1
    12     5     9    1
    13     6    14    1
    14     6    15    1
    15     6    16    1
    16     7    17    1
    17     7    18    1
    18     7    19    1
    19     8    20    1
    20     8    21    1
    21     8    22    1
    22     9    23    1
    23     9    24    1
    24     9    25    1
