@<TRIPOS>MOLECULE
IMPHY010058
 56 55 0 0 0
SMALL
GASTEIGER

@<TRIPOS>ATOM
      1 O          16.7224   -0.2500    0.0000 O.3     1  UNL1       -0.4806
      2 O          15.8564    1.2500    0.0000 O.2     1  UNL1       -0.2510
      3 C          13.2583   -0.2500    0.0000 C.3     1  UNL1       -0.0434
      4 C          12.3923    0.2500    0.0000 C.3     1  UNL1       -0.0504
      5 C          11.5263   -0.2500    0.0000 C.3     1  UNL1       -0.0528
      6 C          10.6603    0.2500    0.0000 C.3     1  UNL1       -0.0530
      7 C           9.7942   -0.2500    0.0000 C.3     1  UNL1       -0.0531
      8 C           8.9282    0.2500    0.0000 C.3     1  UNL1       -0.0531
      9 C           8.0622   -0.2500    0.0000 C.3     1  UNL1       -0.0531
     10 C           7.1962    0.2500    0.0000 C.3     1  UNL1       -0.0531
     11 C          14.1244    0.2500    0.0000 C.3     1  UNL1       -0.0404
     12 C           6.3301   -0.2500    0.0000 C.3     1  UNL1       -0.0531
     13 C           5.4641    0.2500    0.0000 C.3     1  UNL1       -0.0531
     14 C          13.2583   -1.2500    0.0000 C.3     1  UNL1       -0.0624
     15 C           4.5981   -0.2500    0.0000 C.3     1  UNL1       -0.0531
     16 C          14.9904   -0.2500    0.0000 C.3     1  UNL1        0.0450
     17 C           3.7320    0.2500    0.0000 C.3     1  UNL1       -0.0533
     18 C           2.8660   -0.2500    0.0000 C.3     1  UNL1       -0.0559
     19 C          15.8564    0.2500    0.0000 C.2     1  UNL1        0.3047
     20 C           2.0000    0.2500    0.0000 C.3     1  UNL1       -0.0653
     21 H          13.7953   -0.5600    0.0000 H       1  UNL1        0.0298
     22 H          12.7908    0.7249    0.0000 H       1  UNL1        0.0268
     23 H          11.9938    0.7249    0.0000 H       1  UNL1        0.0268
     24 H          11.1278   -0.7249    0.0000 H       1  UNL1        0.0265
     25 H          11.9248   -0.7249    0.0000 H       1  UNL1        0.0265
     26 H          11.0588    0.7249    0.0000 H       1  UNL1        0.0265
     27 H          10.2617    0.7249    0.0000 H       1  UNL1        0.0265
     28 H           9.3957   -0.7249    0.0000 H       1  UNL1        0.0265
     29 H          10.1928   -0.7249    0.0000 H       1  UNL1        0.0265
     30 H           9.3267    0.7249    0.0000 H       1  UNL1        0.0265
     31 H           8.5297    0.7249    0.0000 H       1  UNL1        0.0265
     32 H           7.6636   -0.7249    0.0000 H       1  UNL1        0.0265
     33 H           8.4607   -0.7249    0.0000 H       1  UNL1        0.0265
     34 H           7.5947    0.7249    0.0000 H       1  UNL1        0.0265
     35 H           6.7976    0.7249    0.0000 H       1  UNL1        0.0265
     36 H          14.5229    0.7249    0.0000 H       1  UNL1        0.0273
     37 H          13.7258    0.7249    0.0000 H       1  UNL1        0.0273
     38 H           5.9316   -0.7249    0.0000 H       1  UNL1        0.0265
     39 H           6.7287   -0.7249    0.0000 H       1  UNL1        0.0265
     40 H           5.8626    0.7249    0.0000 H       1  UNL1        0.0265
     41 H           5.0656    0.7249    0.0000 H       1  UNL1        0.0265
     42 H          12.6383   -1.2500    0.0000 H       1  UNL1        0.0232
     43 H          13.2583   -1.8700    0.0000 H       1  UNL1        0.0232
     44 H          13.8783   -1.2500    0.0000 H       1  UNL1        0.0232
     45 H           4.1996   -0.7249    0.0000 H       1  UNL1        0.0265
     46 H           4.9966   -0.7249    0.0000 H       1  UNL1        0.0265
     47 H          14.5919   -0.7249    0.0000 H       1  UNL1        0.0377
     48 H          15.3889   -0.7249    0.0000 H       1  UNL1        0.0377
     49 H           4.1306    0.7249    0.0000 H       1  UNL1        0.0265
     50 H           3.3335    0.7249    0.0000 H       1  UNL1        0.0265
     51 H           2.4675   -0.7249    0.0000 H       1  UNL1        0.0263
     52 H           3.2646   -0.7249    0.0000 H       1  UNL1        0.0263
     53 H           2.3100    0.7869    0.0000 H       1  UNL1        0.0230
     54 H           1.4631    0.5600    0.0000 H       1  UNL1        0.0230
     55 H           1.6900   -0.2869    0.0000 H       1  UNL1        0.0230
     56 H          17.2594    0.0600    0.0000 H       1  UNL1        0.2951
@<TRIPOS>BOND
     1     1    19    1
     2     1    56    1
     3     2    19    2
     4     3     4    1
     5     3    11    1
     6     3    14    1
     7     3    21    1
     8     4     5    1
     9     4    22    1
    10     4    23    1
    11     5     6    1
    12     5    24    1
    13     5    25    1
    14     6     7    1
    15     6    26    1
    16     6    27    1
    17     7     8    1
    18     7    28    1
    19     7    29    1
    20     8     9    1
    21     8    30    1
    22     8    31    1
    23     9    10    1
    24     9    32    1
    25     9    33    1
    26    10    12    1
    27    10    34    1
    28    10    35    1
    29    11    16    1
    30    11    36    1
    31    11    37    1
    32    12    13    1
    33    12    38    1
    34    12    39    1
    35    13    15    1
    36    13    40    1
    37    13    41    1
    38    14    42    1
    39    14    43    1
    40    14    44    1
    41    15    17    1
    42    15    45    1
    43    15    46    1
    44    16    19    1
    45    16    47    1
    46    16    48    1
    47    17    18    1
    48    17    49    1
    49    17    50    1
    50    18    20    1
    51    18    51    1
    52    18    52    1
    53    20    53    1
    54    20    54    1
    55    20    55    1
