@<TRIPOS>MOLECULE
IMPHY014578
 124 132 0 0 0
SMALL
GASTEIGER

@<TRIPOS>ATOM
      1 O           5.0001    2.9273    0.0000 O.3     1  UNL1       -0.3604
      2 O          10.3894    4.0000    0.0000 O.3     1  UNL1       -0.3454
      3 O           3.7595   -1.9512    0.0000 O.3     1  UNL1       -0.4571
      4 O          11.2554    2.5000    0.0000 O.3     1  UNL1       -0.3431
      5 O           2.0000   -2.2337    0.0000 O.2     1  UNL1       -0.2456
      6 O          12.1214    5.0000    0.0000 O.3     1  UNL1       -0.3841
      7 O          13.8535    4.0000    0.0000 O.3     1  UNL1       -0.3744
      8 O          13.8535    2.0000    0.0000 O.3     1  UNL1       -0.3402
      9 O          12.9874    0.5000    0.0000 O.3     1  UNL1       -0.3405
     10 O          15.5855    1.0000    0.0000 O.3     1  UNL1       -0.3841
     11 O          15.5855   -1.0000    0.0000 O.3     1  UNL1       -0.3864
     12 O          13.8535   -2.0000    0.0000 O.3     1  UNL1       -0.3865
     13 O          12.1214   -2.0000    0.0000 O.3     1  UNL1       -0.3460
     14 O          10.3894   -2.0000    0.0000 O.3     1  UNL1       -0.3405
     15 O          12.1214   -4.0000    0.0000 O.3     1  UNL1       -0.3841
     16 O          10.3894   -5.0000    0.0000 O.3     1  UNL1       -0.3864
     17 O           8.6573   -4.0000    0.0000 O.3     1  UNL1       -0.3865
     18 O           8.6573   -1.0000    0.0000 O.3     1  UNL1       -0.3924
     19 C           5.0042    1.9269    0.0000 C.3     1  UNL1        0.1053
     20 C           5.8683    2.4302    0.0000 C.3     1  UNL1        0.1030
     21 C           5.0081    0.9269    0.0000 C.3     1  UNL1        0.0063
     22 C           6.7363    1.9336    0.0000 C.3     1  UNL1       -0.0034
     23 C           7.6443    2.4439    0.0000 C.3     1  UNL1       -0.0235
     24 C           4.0568    2.2280    0.0000 C.3     1  UNL1       -0.0199
     25 C           5.8482    3.4717    0.0000 C.3     1  UNL1       -0.0204
     26 C           4.0630    0.6185    0.0000 C.3     1  UNL1       -0.0080
     27 C           5.8760    0.4302    0.0000 C.3     1  UNL1       -0.0440
     28 C           6.7401    0.9336    0.0000 C.3     1  UNL1       -0.0464
     29 C           7.6483    3.4856    0.0000 C.3     1  UNL1       -0.0329
     30 C           3.4763    1.4210    0.0000 C.3     1  UNL1       -0.0431
     31 C           6.7442    4.0029    0.0000 C.3     1  UNL1       -0.0469
     32 C           5.0119   -0.0731    0.0000 C.3     1  UNL1       -0.0563
     33 C           8.5733    1.8834    0.0000 C.3     1  UNL1       -0.0447
     34 C           8.5816    4.0389    0.0000 C.3     1  UNL1       -0.0232
     35 C           7.6404    1.4439    0.0000 C.3     1  UNL1       -0.0590
     36 C           3.7560   -0.3332    0.0000 C.2     1  UNL1       -0.0222
     37 C           9.5192    2.4150    0.0000 C.3     1  UNL1       -0.0260
     38 C           9.5233    3.5000    0.0000 C.3     1  UNL1        0.0621
     39 C           4.3455   -1.1409    0.0000 C.3     1  UNL1        0.1147
     40 C           2.8056   -0.6442    0.0000 C.2     1  UNL1        0.0252
     41 C           2.8078   -1.6442    0.0000 C.2     1  UNL1        0.3323
     42 C          11.2554    3.5000    0.0000 C.3     1  UNL1        0.1881
     43 C          12.1214    4.0000    0.0000 C.3     1  UNL1        0.1344
     44 C          12.9874    3.5000    0.0000 C.3     1  UNL1        0.1174
     45 C          12.1214    2.0000    0.0000 C.3     1  UNL1        0.0877
     46 C          12.9874    2.5000    0.0000 C.3     1  UNL1        0.1162
     47 C          12.1214    1.0000    0.0000 C.3     1  UNL1       -0.0360
     48 C          13.8535    1.0000    0.0000 C.3     1  UNL1        0.1884
     49 C          13.8535    5.0000    0.0000 C.3     1  UNL1        0.0370
     50 C          14.7195    0.5000    0.0000 C.3     1  UNL1        0.1341
     51 C          14.7195   -0.5000    0.0000 C.3     1  UNL1        0.1141
     52 C          12.9874   -0.5000    0.0000 C.3     1  UNL1        0.1134
     53 C          13.8535   -1.0000    0.0000 C.3     1  UNL1        0.1119
     54 C          12.1214   -1.0000    0.0000 C.3     1  UNL1        0.0796
     55 C          11.2554   -2.5000    0.0000 C.3     1  UNL1        0.1880
     56 C          11.2554   -3.5000    0.0000 C.3     1  UNL1        0.1341
     57 C          10.3894   -4.0000    0.0000 C.3     1  UNL1        0.1141
     58 C           9.5233   -2.5000    0.0000 C.3     1  UNL1        0.1130
     59 C           9.5233   -3.5000    0.0000 C.3     1  UNL1        0.1119
     60 C           8.6573   -2.0000    0.0000 C.3     1  UNL1        0.0730
     61 H           7.4707    1.5057    0.0000 H       1  UNL1        0.0335
     62 H           4.3057    2.7958    0.0000 H       1  UNL1        0.0294
     63 H           3.5183    2.5351    0.0000 H       1  UNL1        0.0294
     64 H           5.6280    4.0512    0.0000 H       1  UNL1        0.0294
     65 H           5.2395    3.3538    0.0000 H       1  UNL1        0.0294
     66 H           3.4509    0.5200    0.0000 H       1  UNL1        0.0353
     67 H           5.4793   -0.0462    0.0000 H       1  UNL1        0.0272
     68 H           6.2764   -0.0432    0.0000 H       1  UNL1        0.0272
     69 H           6.9544    0.3518    0.0000 H       1  UNL1        0.0269
     70 H           7.3503    1.0436    0.0000 H       1  UNL1        0.0269
     71 H           7.6418    4.3355    0.0000 H       1  UNL1        0.0307
     72 H           3.0139    1.8340    0.0000 H       1  UNL1        0.0272
     73 H           3.0171    1.0045    0.0000 H       1  UNL1        0.0272
     74 H           7.1397    4.4804    0.0000 H       1  UNL1        0.0269
     75 H           6.3414    4.4742    0.0000 H       1  UNL1        0.0269
     76 H           4.3919   -0.0755    0.0000 H       1  UNL1        0.0236
     77 H           5.0143   -0.6931    0.0000 H       1  UNL1        0.0236
     78 H           5.6319   -0.0707    0.0000 H       1  UNL1        0.0236
     79 H           8.1669    1.4152    0.0000 H       1  UNL1        0.0271
     80 H           8.9651    1.4029    0.0000 H       1  UNL1        0.0271
     81 H           8.9771    4.5164    0.0000 H       1  UNL1        0.0293
     82 H           8.1788    4.5102    0.0000 H       1  UNL1        0.0293
     83 H           7.0204    1.4463    0.0000 H       1  UNL1        0.0235
     84 H           7.6381    0.8239    0.0000 H       1  UNL1        0.0235
     85 H           8.2604    1.4415    0.0000 H       1  UNL1        0.0235
     86 H           9.7259    1.8305    0.0000 H       1  UNL1        0.0290
     87 H          10.1304    2.5188    0.0000 H       1  UNL1        0.0290
     88 H          10.0597    3.1890    0.0000 H       1  UNL1        0.0597
     89 H           4.8072   -1.5548    0.0000 H       1  UNL1        0.0746
     90 H           4.8054   -0.7251    0.0000 H       1  UNL1        0.0746
     91 H           2.3033   -0.2809    0.0000 H       1  UNL1        0.0689
     92 H          11.2554    4.1200    0.0000 H       1  UNL1        0.0937
     93 H          12.6583    4.3100    0.0000 H       1  UNL1        0.0671
     94 H          12.9874    4.1200    0.0000 H       1  UNL1        0.0650
     95 H          11.5845    1.6900    0.0000 H       1  UNL1        0.0621
     96 H          13.5244    2.8100    0.0000 H       1  UNL1        0.0650
     97 H          11.5845    5.3100    0.0000 H       1  UNL1        0.2101
     98 H          11.5014    1.0000    0.0000 H       1  UNL1        0.0255
     99 H          12.1214    0.3800    0.0000 H       1  UNL1        0.0255
    100 H          12.7414    1.0000    0.0000 H       1  UNL1        0.0255
    101 H          13.3165    1.3100    0.0000 H       1  UNL1        0.0938
    102 H          14.4735    5.0000    0.0000 H       1  UNL1        0.0524
    103 H          13.8535    5.6200    0.0000 H       1  UNL1        0.0524
    104 H          13.2335    5.0000    0.0000 H       1  UNL1        0.0524
    105 H          14.7195    1.1200    0.0000 H       1  UNL1        0.0671
    106 H          15.2564   -0.1900    0.0000 H       1  UNL1        0.0648
    107 H          12.4505   -0.1900    0.0000 H       1  UNL1        0.0647
    108 H          14.3904   -1.3100    0.0000 H       1  UNL1        0.0647
    109 H          15.5855    1.6200    0.0000 H       1  UNL1        0.2101
    110 H          11.9094   -0.4174    0.0000 H       1  UNL1        0.0587
    111 H          11.5108   -1.1077    0.0000 H       1  UNL1        0.0587
    112 H          16.1224   -0.6900    0.0000 H       1  UNL1        0.2100
    113 H          14.3904   -2.3100    0.0000 H       1  UNL1        0.2100
    114 H          11.7923   -2.8100    0.0000 H       1  UNL1        0.0937
    115 H          11.2554   -4.1200    0.0000 H       1  UNL1        0.0671
    116 H          10.9263   -4.3100    0.0000 H       1  UNL1        0.0648
    117 H           9.5233   -1.8800    0.0000 H       1  UNL1        0.0647
    118 H           9.5233   -4.1200    0.0000 H       1  UNL1        0.0647
    119 H           8.0467   -1.8923    0.0000 H       1  UNL1        0.0584
    120 H           8.4452   -2.5826    0.0000 H       1  UNL1        0.0584
    121 H          12.6583   -3.6900    0.0000 H       1  UNL1        0.2101
    122 H           9.8524   -5.3100    0.0000 H       1  UNL1        0.2100
    123 H           8.1204   -3.6900    0.0000 H       1  UNL1        0.2100
    124 H           8.1204   -0.6900    0.0000 H       1  UNL1        0.2095
@<TRIPOS>BOND
     1    19     1    1
     2    20     1    1
     3    38     2    1
     4    42     2    1
     5     3    39    1
     6     3    41    1
     7     4    42    1
     8     4    45    1
     9     5    41    2
    10    43     6    1
    11     6    97    1
    12    44     7    1
    13     7    49    1
    14    46     8    1
    15    48     8    1
    16     9    48    1
    17     9    52    1
    18    50    10    1
    19    10   109    1
    20    51    11    1
    21    11   112    1
    22    53    12    1
    23    12   113    1
    24    13    54    1
    25    55    13    1
    26    14    55    1
    27    14    58    1
    28    56    15    1
    29    15   121    1
    30    57    16    1
    31    16   122    1
    32    59    17    1
    33    17   123    1
    34    18    60    1
    35    18   124    1
    36    19    20    1
    37    19    21    1
    38    19    24    1
    39    20    22    1
    40    20    25    1
    41    21    26    1
    42    21    27    1
    43    21    32    1
    44    22    23    1
    45    22    28    1
    46    22    61    1
    47    23    29    1
    48    23    33    1
    49    23    35    1
    50    24    30    1
    51    24    62    1
    52    24    63    1
    53    25    31    1
    54    25    64    1
    55    25    65    1
    56    26    30    1
    57    26    36    1
    58    26    66    1
    59    27    28    1
    60    27    67    1
    61    27    68    1
    62    28    69    1
    63    28    70    1
    64    29    31    1
    65    29    34    1
    66    29    71    1
    67    30    72    1
    68    30    73    1
    69    31    74    1
    70    31    75    1
    71    32    76    1
    72    32    77    1
    73    32    78    1
    74    33    37    1
    75    33    79    1
    76    33    80    1
    77    34    38    1
    78    34    81    1
    79    34    82    1
    80    35    83    1
    81    35    84    1
    82    35    85    1
    83    36    39    1
    84    36    40    2
    85    37    38    1
    86    37    86    1
    87    37    87    1
    88    38    88    1
    89    39    89    1
    90    39    90    1
    91    40    41    1
    92    40    91    1
    93    42    43    1
    94    42    92    1
    95    43    44    1
    96    43    93    1
    97    44    46    1
    98    44    94    1
    99    45    46    1
   100    45    47    1
   101    45    95    1
   102    46    96    1
   103    47    98    1
   104    47    99    1
   105    47   100    1
   106    48    50    1
   107    48   101    1
   108    49   102    1
   109    49   103    1
   110    49   104    1
   111    50    51    1
   112    50   105    1
   113    51    53    1
   114    51   106    1
   115    52    53    1
   116    52    54    1
   117    52   107    1
   118    53   108    1
   119    54   110    1
   120    54   111    1
   121    55    56    1
   122    55   114    1
   123    56    57    1
   124    56   115    1
   125    57    59    1
   126    57   116    1
   127    58    59    1
   128    58    60    1
   129    58   117    1
   130    59   118    1
   131    60   119    1
   132    60   120    1
