@<TRIPOS>MOLECULE
IMPHY010570
 47 49 0 0 0
SMALL
GASTEIGER

@<TRIPOS>ATOM
      1 O           5.1350   -0.6296    0.0000 O.3     1  UNL1       -0.3313
      2 O           6.8671   -0.6296    0.0000 O.3     1  UNL1       -0.4533
      3 O           5.1350   -3.6296    0.0000 O.3     1  UNL1       -0.3864
      4 O           3.4030   -2.6296    0.0000 O.3     1  UNL1       -0.3865
      5 O           6.8671   -2.6296    0.0000 O.3     1  UNL1       -0.3829
      6 O           2.5369   -1.1296    0.0000 O.3     1  UNL1       -0.3924
      7 O           8.5991    0.3704    0.0000 O.3     1  UNL1       -0.4884
      8 O           5.1350    0.3704    0.0000 O.3     1  UNL1       -0.4913
      9 O           8.6431    2.3772    0.0000 O.2     1  UNL1       -0.4183
     10 O           9.5191    3.9155    0.0000 O.2     1  UNL1       -0.2452
     11 C           5.1350   -2.6296    0.0000 C.3     1  UNL1        0.1152
     12 C           4.2690   -2.1296    0.0000 C.3     1  UNL1        0.1120
     13 C           6.0010   -2.1296    0.0000 C.3     1  UNL1        0.1454
     14 C           4.2690   -1.1296    0.0000 C.3     1  UNL1        0.1140
     15 C           6.0010   -1.1296    0.0000 C.3     1  UNL1        0.2311
     16 C           3.4030   -0.6296    0.0000 C.3     1  UNL1        0.0731
     17 C           6.8671    0.3704    0.0000 C.ar    1  UNL1        0.2104
     18 C           7.7331    0.8704    0.0000 C.ar    1  UNL1        0.2087
     19 C           6.0010    0.8704    0.0000 C.ar    1  UNL1        0.1661
     20 C           7.7331    1.8704    0.0000 C.ar    1  UNL1        0.1843
     21 C           6.8671    2.3704    0.0000 C.ar    1  UNL1        0.0250
     22 C           6.0010    1.8704    0.0000 C.ar    1  UNL1       -0.0054
     23 C           6.8510    3.4119    0.0000 C.ar    1  UNL1       -0.0441
     24 C           7.7490    3.9396    0.0000 C.ar    1  UNL1        0.0236
     25 C           8.6511    3.4188    0.0000 C.ar    1  UNL1        0.3373
     26 C           9.4651    0.8704    0.0000 C.3     1  UNL1        0.0791
     27 C           4.2690    0.8704    0.0000 C.3     1  UNL1        0.0790
     28 H           5.6720   -2.9396    0.0000 H       1  UNL1        0.0648
     29 H           4.2690   -2.7496    0.0000 H       1  UNL1        0.0647
     30 H           6.5380   -1.8196    0.0000 H       1  UNL1        0.0683
     31 H           4.2690   -0.5096    0.0000 H       1  UNL1        0.0647
     32 H           6.0010   -0.5096    0.0000 H       1  UNL1        0.1084
     33 H           3.8015   -0.1547    0.0000 H       1  UNL1        0.0584
     34 H           3.0044   -0.1547    0.0000 H       1  UNL1        0.0584
     35 H           4.5981   -3.9396    0.0000 H       1  UNL1        0.2100
     36 H           3.4030   -3.2496    0.0000 H       1  UNL1        0.2100
     37 H           6.8671   -3.2496    0.0000 H       1  UNL1        0.2102
     38 H           2.0000   -0.8196    0.0000 H       1  UNL1        0.2095
     39 H           5.4641    2.1804    0.0000 H       1  UNL1        0.0662
     40 H           6.3105    3.7156    0.0000 H       1  UNL1        0.0627
     41 H           7.7466    4.5596    0.0000 H       1  UNL1        0.0689
     42 H           9.7751    0.3334    0.0000 H       1  UNL1        0.0660
     43 H          10.0021    1.1804    0.0000 H       1  UNL1        0.0660
     44 H           9.1551    1.4073    0.0000 H       1  UNL1        0.0660
     45 H           4.5790    1.4073    0.0000 H       1  UNL1        0.0660
     46 H           3.7320    1.1804    0.0000 H       1  UNL1        0.0660
     47 H           3.9590    0.3334    0.0000 H       1  UNL1        0.0660
@<TRIPOS>BOND
     1     1    14    1
     2     1    15    1
     3    15     2    1
     4     2    17    1
     5    11     3    1
     6     3    35    1
     7    12     4    1
     8     4    36    1
     9    13     5    1
    10     5    37    1
    11     6    16    1
    12     6    38    1
    13     7    18    1
    14     7    26    1
    15     8    19    1
    16     8    27    1
    17     9    20   ar
    18     9    25   ar
    19    10    25    2
    20    11    12    1
    21    11    13    1
    22    11    28    1
    23    12    14    1
    24    12    29    1
    25    13    15    1
    26    13    30    1
    27    14    16    1
    28    14    31    1
    29    15    32    1
    30    16    33    1
    31    16    34    1
    32    17    18   ar
    33    17    19   ar
    34    18    20   ar
    35    19    22   ar
    36    20    21   ar
    37    21    22   ar
    38    21    23   ar
    39    22    39    1
    40    23    24   ar
    41    23    40    1
    42    24    25   ar
    43    24    41    1
    44    26    42    1
    45    26    43    1
    46    26    44    1
    47    27    45    1
    48    27    46    1
    49    27    47    1
