@<TRIPOS>MOLECULE
IMPHY005792
 84 89 0 0 0
SMALL
GASTEIGER

@<TRIPOS>ATOM
      1 O           8.9864   -3.2683    0.0000 O.3     1  UNL1       -0.3475
      2 O           6.3744    0.2601    0.0000 O.3     1  UNL1       -0.4537
      3 O           9.5496    0.6412    0.0000 O.3     1  UNL1       -0.3848
      4 O           8.1403    1.2979    0.0000 O.3     1  UNL1       -0.4549
      5 O          10.7079   -3.3010    0.0000 O.3     1  UNL1       -0.3545
      6 O           5.5138   -0.2367    0.0000 O.2     1  UNL1       -0.2929
      7 O           3.7320   -1.2472    0.0000 O.3     1  UNL1       -0.4538
      8 O           7.2230    1.7700    0.0000 O.2     1  UNL1       -0.2449
      9 O           9.8723    1.3046    0.0000 O.2     1  UNL1       -0.2512
     10 O           2.8602   -2.7438    0.0000 O.2     1  UNL1       -0.2511
     11 O           4.3873    4.2092    0.0000 O.3     1  UNL1       -0.4526
     12 O           3.0029    3.3884    0.0000 O.3     1  UNL1       -0.4526
     13 C           8.1282   -1.7713    0.0000 C.3     1  UNL1        0.0071
     14 C           7.2622   -1.2713    0.0000 C.3     1  UNL1        0.0203
     15 C           6.3961   -1.7713    0.0000 C.3     1  UNL1        0.0397
     16 C           9.0382   -1.2645    0.0000 C.3     1  UNL1        0.0039
     17 C           8.1282   -2.7713    0.0000 C.3     1  UNL1        0.0680
     18 C           6.3961   -2.7713    0.0000 C.3     1  UNL1       -0.0259
     19 C           7.2461   -0.2298    0.0000 C.3     1  UNL1        0.1471
     20 C           9.0462   -0.2229    0.0000 C.3     1  UNL1        0.1071
     21 C           7.2622   -3.2713    0.0000 C.3     1  UNL1       -0.0222
     22 C           8.1441    0.2979    0.0000 C.3     1  UNL1        0.1684
     23 C           9.8775   -1.7927    0.0000 C.3     1  UNL1        0.0045
     24 C           8.1282   -0.7713    0.0000 C.3     1  UNL1       -0.0564
     25 C           5.5022   -3.3060    0.0000 C.3     1  UNL1       -0.0455
     26 C           5.5022   -1.2367    0.0000 C.2     1  UNL1        0.1800
     27 C           6.3961   -0.7713    0.0000 C.3     1  UNL1       -0.0520
     28 C           9.8519   -2.7841    0.0000 C.3     1  UNL1        0.1595
     29 C           4.5961   -1.7505    0.0000 C.3     1  UNL1        0.1610
     30 C           4.5961   -2.7922    0.0000 C.3     1  UNL1       -0.0083
     31 C          10.0462   -0.2267    0.0000 C.3     1  UNL1       -0.0322
     32 C           6.3628    1.2601    0.0000 C.2     1  UNL1        0.3397
     33 C           9.0044    1.8013    0.0000 C.2     1  UNL1        0.3044
     34 C          10.6882   -4.3008    0.0000 C.3     1  UNL1        0.0394
     35 C           2.8641   -1.7438    0.0000 C.2     1  UNL1        0.3046
     36 C           5.4910    1.7500    0.0000 C.ar    1  UNL1        0.0627
     37 C           9.0005    2.8012    0.0000 C.3     1  UNL1        0.0332
     38 C           2.0000   -1.2405    0.0000 C.3     1  UNL1        0.0333
     39 C           5.4795    2.7500    0.0000 C.ar    1  UNL1       -0.0022
     40 C           4.6309    1.2400    0.0000 C.ar    1  UNL1       -0.0441
     41 C           4.6077    3.2399    0.0000 C.ar    1  UNL1        0.1670
     42 C           3.7591    1.7300    0.0000 C.ar    1  UNL1       -0.0154
     43 C           3.7475    2.7299    0.0000 C.ar    1  UNL1        0.1663
     44 C           3.3974    4.3008    0.0000 C.3     1  UNL1        0.2332
     45 H           6.5228   -0.8520    0.0000 H       1  UNL1        0.0353
     46 H           9.7839   -0.8565    0.0000 H       1  UNL1        0.0337
     47 H           8.1277   -3.6213    0.0000 H       1  UNL1        0.0603
     48 H           6.4027   -3.6213    0.0000 H       1  UNL1        0.0311
     49 H           7.2401    0.3901    0.0000 H       1  UNL1        0.0776
     50 H           6.8636   -3.7463    0.0000 H       1  UNL1        0.0293
     51 H           7.6607   -3.7463    0.0000 H       1  UNL1        0.0293
     52 H           7.6054    0.6048    0.0000 H       1  UNL1        0.0801
     53 H          10.4846   -1.9186    0.0000 H       1  UNL1        0.0318
     54 H          10.1093   -1.2177    0.0000 H       1  UNL1        0.0318
     55 H           8.7482   -0.7713    0.0000 H       1  UNL1        0.0236
     56 H           8.1282   -0.1513    0.0000 H       1  UNL1        0.0236
     57 H           7.5082   -0.7713    0.0000 H       1  UNL1        0.0236
     58 H           5.1086   -3.7850    0.0000 H       1  UNL1        0.0269
     59 H           5.9068   -3.7758    0.0000 H       1  UNL1        0.0269
     60 H           7.0161   -0.7713    0.0000 H       1  UNL1        0.0239
     61 H           6.3961   -0.1513    0.0000 H       1  UNL1        0.0239
     62 H           5.7761   -0.7713    0.0000 H       1  UNL1        0.0239
     63 H          10.3957   -2.4864    0.0000 H       1  UNL1        0.0909
     64 H           4.5997   -1.1305    0.0000 H       1  UNL1        0.0815
     65 H           3.9853   -2.6860    0.0000 H       1  UNL1        0.0305
     66 H           4.3871   -3.3758    0.0000 H       1  UNL1        0.0305
     67 H          10.0438   -0.8467    0.0000 H       1  UNL1        0.0259
     68 H          10.6662   -0.2291    0.0000 H       1  UNL1        0.0259
     69 H          10.0486    0.3933    0.0000 H       1  UNL1        0.0259
     70 H          10.1695    0.6388    0.0000 H       1  UNL1        0.2103
     71 H          10.0683   -4.2886    0.0000 H       1  UNL1        0.0525
     72 H          10.6760   -4.9207    0.0000 H       1  UNL1        0.0525
     73 H          11.3081   -4.3131    0.0000 H       1  UNL1        0.0525
     74 H           9.6205    2.8036    0.0000 H       1  UNL1        0.0342
     75 H           8.9981    3.4212    0.0000 H       1  UNL1        0.0342
     76 H           8.3805    2.7989    0.0000 H       1  UNL1        0.0342
     77 H           2.3121   -0.7048    0.0000 H       1  UNL1        0.0342
     78 H           1.4643   -0.9284    0.0000 H       1  UNL1        0.0342
     79 H           1.6879   -1.7762    0.0000 H       1  UNL1        0.0342
     80 H           6.0128    3.0661    0.0000 H       1  UNL1        0.0663
     81 H           4.6380    0.6201    0.0000 H       1  UNL1        0.0627
     82 H           3.2258    1.4138    0.0000 H       1  UNL1        0.0655
     83 H           3.5192    4.9088    0.0000 H       1  UNL1        0.1166
     84 H           2.8057    4.4858    0.0000 H       1  UNL1        0.1166
@<TRIPOS>BOND
     1     1    17    1
     2     1    28    1
     3    19     2    1
     4     2    32    1
     5    20     3    1
     6     3    70    1
     7    22     4    1
     8     4    33    1
     9    28     5    1
    10     5    34    1
    11     6    26    2
    12    29     7    1
    13     7    35    1
    14     8    32    2
    15     9    33    2
    16    10    35    2
    17    11    41    1
    18    11    44    1
    19    12    43    1
    20    12    44    1
    21    13    14    1
    22    13    16    1
    23    13    17    1
    24    13    24    1
    25    14    15    1
    26    14    19    1
    27    14    45    1
    28    15    18    1
    29    15    26    1
    30    15    27    1
    31    16    20    1
    32    16    23    1
    33    16    46    1
    34    17    21    1
    35    17    47    1
    36    18    21    1
    37    18    25    1
    38    18    48    1
    39    19    22    1
    40    19    49    1
    41    20    22    1
    42    20    31    1
    43    21    50    1
    44    21    51    1
    45    22    52    1
    46    23    28    1
    47    23    53    1
    48    23    54    1
    49    24    55    1
    50    24    56    1
    51    24    57    1
    52    25    30    1
    53    25    58    1
    54    25    59    1
    55    26    29    1
    56    27    60    1
    57    27    61    1
    58    27    62    1
    59    28    63    1
    60    29    30    1
    61    29    64    1
    62    30    65    1
    63    30    66    1
    64    31    67    1
    65    31    68    1
    66    31    69    1
    67    32    36    1
    68    33    37    1
    69    34    71    1
    70    34    72    1
    71    34    73    1
    72    35    38    1
    73    36    39   ar
    74    36    40   ar
    75    37    74    1
    76    37    75    1
    77    37    76    1
    78    38    77    1
    79    38    78    1
    80    38    79    1
    81    39    41   ar
    82    39    80    1
    83    40    42   ar
    84    40    81    1
    85    41    43   ar
    86    42    43   ar
    87    42    82    1
    88    44    83    1
    89    44    84    1
