@<TRIPOS>MOLECULE
IMPHY016432
 25 25 0 0 0
SMALL
GASTEIGER

@<TRIPOS>ATOM
      1 O           5.4641   -1.4330    0.0000 O.2     1  UNL1       -0.2926
      2 C           3.7320    0.5670    0.0000 C.3     1  UNL1       -0.0032
      3 C           4.5981    0.0670    0.0000 C.3     1  UNL1        0.0190
      4 C           2.8660    0.0670    0.0000 C.2     1  UNL1       -0.0454
      5 C           4.2320    1.4330    0.0000 C.3     1  UNL1       -0.0554
      6 C           3.2320    1.4330    0.0000 C.3     1  UNL1       -0.0554
      7 C           2.8660   -0.9330    0.0000 C.2     1  UNL1       -0.0440
      8 C           4.5981   -0.9330    0.0000 C.2     1  UNL1        0.1572
      9 C           3.7320   -1.4330    0.0000 C.2     1  UNL1       -0.0160
     10 C           2.0000    0.5670    0.0000 C.2     1  UNL1       -0.0947
     11 C           2.0000   -1.4330    0.0000 C.3     1  UNL1       -0.0393
     12 H           5.2087   -0.0407    0.0000 H       1  UNL1        0.0353
     13 H           4.8101    0.6496    0.0000 H       1  UNL1        0.0353
     14 H           4.7690    1.1230    0.0000 H       1  UNL1        0.0238
     15 H           4.5420    1.9700    0.0000 H       1  UNL1        0.0238
     16 H           3.6951    1.7430    0.0000 H       1  UNL1        0.0238
     17 H           3.7690    1.7430    0.0000 H       1  UNL1        0.0238
     18 H           2.9220    1.9700    0.0000 H       1  UNL1        0.0238
     19 H           2.6951    1.1230    0.0000 H       1  UNL1        0.0238
     20 H           3.7320   -2.0530    0.0000 H       1  UNL1        0.0655
     21 H           2.0000    1.1870    0.0000 H       1  UNL1        0.0538
     22 H           1.4631    0.2570    0.0000 H       1  UNL1        0.0538
     23 H           1.6900   -0.8961    0.0000 H       1  UNL1        0.0278
     24 H           1.4631   -1.7430    0.0000 H       1  UNL1        0.0278
     25 H           2.3100   -1.9700    0.0000 H       1  UNL1        0.0278
@<TRIPOS>BOND
     1     1     8    2
     2     2     3    1
     3     2     4    1
     4     2     5    1
     5     2     6    1
     6     3     8    1
     7     3    12    1
     8     3    13    1
     9     4     7    1
    10     4    10    2
    11     5    14    1
    12     5    15    1
    13     5    16    1
    14     6    17    1
    15     6    18    1
    16     6    19    1
    17     7     9    2
    18     7    11    1
    19     8     9    1
    20     9    20    1
    21    10    21    1
    22    10    22    1
    23    11    23    1
    24    11    24    1
    25    11    25    1
