@<TRIPOS>MOLECULE
IMPHY009659
 15 16 0 0 0
SMALL
GASTEIGER

@<TRIPOS>ATOM
      1 S           4.6783   -1.0018    0.0000 S.2     1  UNL1       -0.0269
      2 O           6.2619   -0.1970    0.0000 O.2     1  UNL1       -0.2596
      3 N           4.6783    0.6077    0.0000 N.ar    1  UNL1       -0.3158
      4 C           3.7320    0.3030    0.0000 C.ar    1  UNL1        0.0564
      5 C           3.7320   -0.6970    0.0000 C.ar    1  UNL1        0.0405
      6 C           2.8660    0.8030    0.0000 C.ar    1  UNL1       -0.0372
      7 C           2.8660   -1.1970    0.0000 C.ar    1  UNL1       -0.0459
      8 C           5.2619   -0.1970    0.0000 C.ar    1  UNL1        0.2890
      9 C           2.0000    0.3030    0.0000 C.ar    1  UNL1       -0.0598
     10 C           2.0000   -0.6970    0.0000 C.ar    1  UNL1       -0.0606
     11 H           4.8709    1.1970    0.0000 H       1  UNL1        0.1694
     12 H           2.8660    1.4230    0.0000 H       1  UNL1        0.0638
     13 H           2.8660   -1.8170    0.0000 H       1  UNL1        0.0629
     14 H           1.4631    0.6130    0.0000 H       1  UNL1        0.0618
     15 H           1.4631   -1.0070    0.0000 H       1  UNL1        0.0618
@<TRIPOS>BOND
     1     1     5   ar
     2     1     8   ar
     3     2     8    2
     4     3     4   ar
     5     3     8   ar
     6     3    11    1
     7     4     5   ar
     8     4     6   ar
     9     5     7   ar
    10     6     9   ar
    11     6    12    1
    12     7    10   ar
    13     7    13    1
    14     9    10   ar
    15     9    14    1
    16    10    15    1
