@<TRIPOS>MOLECULE
IMPHY006542
 23 23 0 0 0
SMALL
GASTEIGER

@<TRIPOS>ATOM
      1 O           2.5369    0.7500    0.0000 O.3     1  UNL1       -0.5062
      2 C           4.2690    0.7500    0.0000 C.ar    1  UNL1        0.0188
      3 C           4.2690   -1.2500    0.0000 C.ar    1  UNL1       -0.0470
      4 C           3.4030    0.2500    0.0000 C.ar    1  UNL1        0.1244
      5 C           5.1350    0.2500    0.0000 C.ar    1  UNL1       -0.0506
      6 C           3.4030   -0.7500    0.0000 C.ar    1  UNL1       -0.0167
      7 C           4.2690    1.7500    0.0000 C.2     1  UNL1       -0.0469
      8 C           5.1350   -0.7500    0.0000 C.ar    1  UNL1       -0.0580
      9 C           4.2690   -2.2500    0.0000 C.3     1  UNL1       -0.0396
     10 C           5.1350    2.2500    0.0000 C.3     1  UNL1       -0.0396
     11 C           3.4030    2.2500    0.0000 C.2     1  UNL1       -0.0951
     12 H           5.6720    0.5600    0.0000 H       1  UNL1        0.0625
     13 H           2.8660   -1.0600    0.0000 H       1  UNL1        0.0657
     14 H           5.6720   -1.0600    0.0000 H       1  UNL1        0.0620
     15 H           3.6490   -2.2500    0.0000 H       1  UNL1        0.0278
     16 H           4.2690   -2.8700    0.0000 H       1  UNL1        0.0278
     17 H           4.8890   -2.2500    0.0000 H       1  UNL1        0.0278
     18 H           5.4450    1.7131    0.0000 H       1  UNL1        0.0278
     19 H           5.6720    2.5600    0.0000 H       1  UNL1        0.0278
     20 H           4.8250    2.7869    0.0000 H       1  UNL1        0.0278
     21 H           3.4030    2.8700    0.0000 H       1  UNL1        0.0538
     22 H           2.8660    1.9400    0.0000 H       1  UNL1        0.0538
     23 H           2.0000    0.4400    0.0000 H       1  UNL1        0.2922
@<TRIPOS>BOND
     1     1     4    1
     2     1    23    1
     3     2     4   ar
     4     2     5   ar
     5     2     7    1
     6     3     6   ar
     7     3     8   ar
     8     3     9    1
     9     4     6   ar
    10     5     8   ar
    11     5    12    1
    12     6    13    1
    13     7    10    1
    14     7    11    2
    15     8    14    1
    16     9    15    1
    17     9    16    1
    18     9    17    1
    19    10    18    1
    20    10    19    1
    21    10    20    1
    22    11    21    1
    23    11    22    1
