@<TRIPOS>MOLECULE
IMPHY007477
 59 62 0 0 0
SMALL
GASTEIGER

@<TRIPOS>ATOM
      1 O           5.1350   -1.3780    0.0000 O.3     1  UNL1       -0.3313
      2 O           6.8671   -1.3780    0.0000 O.3     1  UNL1       -0.4532
      3 O           5.1350   -4.3780    0.0000 O.3     1  UNL1       -0.3864
      4 O           3.4030   -3.3780    0.0000 O.3     1  UNL1       -0.3865
      5 O           6.8671   -3.3780    0.0000 O.3     1  UNL1       -0.3829
      6 O           2.5369   -1.8780    0.0000 O.3     1  UNL1       -0.3924
      7 O           7.7331    1.1220    0.0000 O.2     1  UNL1       -0.4507
      8 O           5.1350   -0.3780    0.0000 O.2     1  UNL1       -0.2830
      9 O           4.2308    1.1189    0.0000 O.3     1  UNL1       -0.5027
     10 O           4.2151    3.1672    0.0000 O.3     1  UNL1       -0.4885
     11 O           5.9889    4.1913    0.0000 O.3     1  UNL1       -0.4912
     12 O          11.1972   -1.8780    0.0000 O.3     1  UNL1       -0.5068
     13 C           5.1350   -3.3780    0.0000 C.3     1  UNL1        0.1152
     14 C           4.2690   -2.8780    0.0000 C.3     1  UNL1        0.1120
     15 C           6.0010   -2.8780    0.0000 C.3     1  UNL1        0.1454
     16 C           4.2690   -1.8780    0.0000 C.3     1  UNL1        0.1140
     17 C           6.0010   -1.8780    0.0000 C.3     1  UNL1        0.2311
     18 C           3.4030   -1.3780    0.0000 C.3     1  UNL1        0.0731
     19 C           6.8671   -0.3780    0.0000 C.ar    1  UNL1        0.2138
     20 C           7.7331    0.1220    0.0000 C.ar    1  UNL1        0.1809
     21 C           6.0010    0.1220    0.0000 C.ar    1  UNL1        0.2383
     22 C           6.0010    1.1220    0.0000 C.ar    1  UNL1        0.1128
     23 C           6.8671    1.6220    0.0000 C.ar    1  UNL1        0.1468
     24 C           8.5991   -0.3780    0.0000 C.ar    1  UNL1        0.0213
     25 C           5.0910    1.6289    0.0000 C.ar    1  UNL1        0.1769
     26 C           6.8831    2.6636    0.0000 C.ar    1  UNL1        0.0270
     27 C           5.0830    2.6705    0.0000 C.ar    1  UNL1        0.2043
     28 C           5.9851    3.1913    0.0000 C.ar    1  UNL1        0.1687
     29 C           9.4651    0.1220    0.0000 C.ar    1  UNL1       -0.0475
     30 C           8.5991   -1.3780    0.0000 C.ar    1  UNL1       -0.0475
     31 C          10.3312   -0.3780    0.0000 C.ar    1  UNL1       -0.0195
     32 C           9.4651   -1.8780    0.0000 C.ar    1  UNL1       -0.0195
     33 C          10.3312   -1.3780    0.0000 C.ar    1  UNL1        0.1169
     34 C           4.2112    4.1671    0.0000 C.3     1  UNL1        0.0791
     35 C           6.8569    4.6880    0.0000 C.3     1  UNL1        0.0790
     36 H           5.6720   -3.6880    0.0000 H       1  UNL1        0.0648
     37 H           4.2690   -3.4980    0.0000 H       1  UNL1        0.0647
     38 H           6.5380   -2.5680    0.0000 H       1  UNL1        0.0683
     39 H           4.2690   -1.2580    0.0000 H       1  UNL1        0.0647
     40 H           6.0010   -1.2580    0.0000 H       1  UNL1        0.1084
     41 H           3.8015   -0.9030    0.0000 H       1  UNL1        0.0584
     42 H           3.0044   -0.9030    0.0000 H       1  UNL1        0.0584
     43 H           4.5981   -4.6880    0.0000 H       1  UNL1        0.2100
     44 H           3.4030   -3.9980    0.0000 H       1  UNL1        0.2100
     45 H           6.8671   -3.9980    0.0000 H       1  UNL1        0.2102
     46 H           2.0000   -1.5680    0.0000 H       1  UNL1        0.2095
     47 H           7.4236    2.9673    0.0000 H       1  UNL1        0.0692
     48 H           9.4651    0.7420    0.0000 H       1  UNL1        0.0626
     49 H           8.0622   -1.6880    0.0000 H       1  UNL1        0.0626
     50 H          10.8681   -0.0680    0.0000 H       1  UNL1        0.0654
     51 H           9.4651   -2.4980    0.0000 H       1  UNL1        0.0654
     52 H           3.6904    1.4227    0.0000 H       1  UNL1        0.2923
     53 H           4.8312    4.1695    0.0000 H       1  UNL1        0.0660
     54 H           4.2088    4.7871    0.0000 H       1  UNL1        0.0660
     55 H           3.5912    4.1648    0.0000 H       1  UNL1        0.0660
     56 H           7.1648    4.1498    0.0000 H       1  UNL1        0.0660
     57 H           7.3950    4.9959    0.0000 H       1  UNL1        0.0660
     58 H           6.5490    5.2261    0.0000 H       1  UNL1        0.0660
     59 H          11.1972   -2.4980    0.0000 H       1  UNL1        0.2921
@<TRIPOS>BOND
     1     1    16    1
     2     1    17    1
     3    17     2    1
     4     2    19    1
     5    13     3    1
     6     3    43    1
     7    14     4    1
     8     4    44    1
     9    15     5    1
    10     5    45    1
    11     6    18    1
    12     6    46    1
    13     7    20   ar
    14     7    23   ar
    15     8    21    2
    16     9    25    1
    17     9    52    1
    18    10    27    1
    19    10    34    1
    20    11    28    1
    21    11    35    1
    22    12    33    1
    23    12    59    1
    24    13    14    1
    25    13    15    1
    26    13    36    1
    27    14    16    1
    28    14    37    1
    29    15    17    1
    30    15    38    1
    31    16    18    1
    32    16    39    1
    33    17    40    1
    34    18    41    1
    35    18    42    1
    36    19    20   ar
    37    19    21   ar
    38    20    24    1
    39    21    22   ar
    40    22    23   ar
    41    22    25   ar
    42    23    26   ar
    43    24    29   ar
    44    24    30   ar
    45    25    27   ar
    46    26    28   ar
    47    26    47    1
    48    27    28   ar
    49    29    31   ar
    50    29    48    1
    51    30    32   ar
    52    30    49    1
    53    31    33   ar
    54    31    50    1
    55    32    33   ar
    56    32    51    1
    57    34    53    1
    58    34    54    1
    59    34    55    1
    60    35    56    1
    61    35    57    1
    62    35    58    1
