@<TRIPOS>MOLECULE
IMPHY012526
 75 81 0 0 0
SMALL
GASTEIGER

@<TRIPOS>ATOM
      1 O           7.8725   -1.4890    0.0000 O.3     1  UNL1       -0.3406
      2 O           8.5634   -0.0542    0.0000 O.3     1  UNL1       -0.3442
      3 O           6.1234   -1.9268    0.0000 O.3     1  UNL1       -0.3885
      4 O           4.9163    1.8904    0.0000 O.3     1  UNL1       -0.3791
      5 O           8.6327    1.6388    0.0000 O.3     1  UNL1       -0.3790
      6 O           9.0340    2.3483    0.0000 O.3     1  UNL1       -0.3793
      7 O           4.0503   -2.3448    0.0000 O.3     1  UNL1       -0.3824
      8 N           3.7210    0.0613    0.0000 N.3     1  UNL1       -0.2955
      9 C           5.6676    0.4566    0.0000 C.3     1  UNL1        0.0244
     10 C           7.1918   -0.7589    0.0000 C.3     1  UNL1        0.1433
     11 C           4.6656    0.3505    0.0000 C.3     1  UNL1        0.0533
     12 C           5.6676   -0.4110    0.0000 C.3     1  UNL1        0.0066
     13 C           6.3459    0.9975    0.0000 C.3     1  UNL1       -0.0228
     14 C           7.5682    0.0228    0.0000 C.3     1  UNL1        0.1128
     15 C           7.1918    0.8044    0.0000 C.3     1  UNL1        0.0212
     16 C           6.3459   -0.9519    0.0000 C.3     1  UNL1        0.0925
     17 C           4.9163   -0.8448    0.0000 C.3     1  UNL1        0.0128
     18 C           4.9163    0.8904    0.0000 C.3     1  UNL1        0.0661
     19 C           6.2682    1.8616    0.0000 C.3     1  UNL1       -0.0416
     20 C           7.0659    2.2026    0.0000 C.3     1  UNL1        0.0123
     21 C           7.6367    1.5492    0.0000 C.3     1  UNL1        0.0693
     22 C           8.2131    0.2927    0.0000 C.3     1  UNL1        0.0063
     23 C           3.7210   -0.6906    0.0000 C.3     1  UNL1        0.0074
     24 C           8.2131    1.7772    0.0000 C.3     1  UNL1        0.0662
     25 C           4.1649   -0.4110    0.0000 C.3     1  UNL1       -0.0414
     26 C           4.1649    0.4566    0.0000 C.3     1  UNL1       -0.0254
     27 C           4.9163   -1.8448    0.0000 C.3     1  UNL1        0.0544
     28 C           8.7604   -1.0328    0.0000 C.3     1  UNL1        0.1500
     29 C           2.9170    0.6560    0.0000 C.3     1  UNL1       -0.0035
     30 C           2.0000    0.2571    0.0000 C.3     1  UNL1       -0.0523
     31 C           4.0502    2.3904    0.0000 C.3     1  UNL1        0.0368
     32 C           9.2083    0.8211    0.0000 C.3     1  UNL1        0.0368
     33 C           8.9498    3.3448    0.0000 C.3     1  UNL1        0.0368
     34 C           4.0503   -3.3448    0.0000 C.3     1  UNL1        0.0365
     35 H           4.5417    0.9580    0.0000 H       1  UNL1        0.0499
     36 H           5.6041   -1.2586    0.0000 H       1  UNL1        0.0340
     37 H           5.5643    1.3316    0.0000 H       1  UNL1        0.0312
     38 H           8.0409    0.7663    0.0000 H       1  UNL1        0.0358
     39 H           6.7843   -1.3903    0.0000 H       1  UNL1        0.0627
     40 H           5.4532    1.2004    0.0000 H       1  UNL1        0.0602
     41 H           6.0854    2.4540    0.0000 H       1  UNL1        0.0272
     42 H           5.6598    1.7418    0.0000 H       1  UNL1        0.0272
     43 H           7.0452    3.0523    0.0000 H       1  UNL1        0.0351
     44 H           7.8676    2.1246    0.0000 H       1  UNL1        0.0603
     45 H           8.3750   -0.3058    0.0000 H       1  UNL1        0.0319
     46 H           8.8277    0.3744    0.0000 H       1  UNL1        0.0319
     47 H           3.1015   -0.6640    0.0000 H       1  UNL1        0.0433
     48 H           3.6680   -1.3083    0.0000 H       1  UNL1        0.0433
     49 H           8.1349    2.3923    0.0000 H       1  UNL1        0.0600
     50 H           3.5544   -0.3033    0.0000 H       1  UNL1        0.0273
     51 H           3.9529   -0.9936    0.0000 H       1  UNL1        0.0273
     52 H           3.9529    1.0392    0.0000 H       1  UNL1        0.0290
     53 H           3.5544    0.3489    0.0000 H       1  UNL1        0.0290
     54 H           5.1283   -2.4274    0.0000 H       1  UNL1        0.0566
     55 H           5.5269   -1.7371    0.0000 H       1  UNL1        0.0566
     56 H           8.9919   -1.6080    0.0000 H       1  UNL1        0.0872
     57 H           9.3544   -0.8552    0.0000 H       1  UNL1        0.0872
     58 H           6.5779   -2.3486    0.0000 H       1  UNL1        0.2099
     59 H           3.3666    1.0829    0.0000 H       1  UNL1        0.0424
     60 H           2.5747    1.1730    0.0000 H       1  UNL1        0.0424
     61 H           1.7527    0.8256    0.0000 H       1  UNL1        0.0242
     62 H           1.4315    0.0098    0.0000 H       1  UNL1        0.0242
     63 H           2.2473   -0.3114    0.0000 H       1  UNL1        0.0242
     64 H           4.3602    2.9273    0.0000 H       1  UNL1        0.0524
     65 H           3.5133    2.7004    0.0000 H       1  UNL1        0.0524
     66 H           3.7402    1.8534    0.0000 H       1  UNL1        0.0524
     67 H           8.7013    0.4643    0.0000 H       1  UNL1        0.0524
     68 H           9.5652    0.3141    0.0000 H       1  UNL1        0.0524
     69 H           9.7153    1.1780    0.0000 H       1  UNL1        0.0524
     70 H           9.5676    3.3970    0.0000 H       1  UNL1        0.0524
     71 H           8.8976    3.9626    0.0000 H       1  UNL1        0.0524
     72 H           8.3320    3.2926    0.0000 H       1  UNL1        0.0524
     73 H           3.4303   -3.3448    0.0000 H       1  UNL1        0.0523
     74 H           4.0503   -3.9648    0.0000 H       1  UNL1        0.0523
     75 H           4.6703   -3.3448    0.0000 H       1  UNL1        0.0523
@<TRIPOS>BOND
     1    10     1    1
     2     1    28    1
     3    14     2    1
     4     2    28    1
     5    16     3    1
     6     3    58    1
     7    18     4    1
     8     4    31    1
     9    21     5    1
    10     5    32    1
    11    24     6    1
    12     6    33    1
    13     7    27    1
    14     7    34    1
    15     8    11    1
    16     8    23    1
    17     8    29    1
    18     9    11    1
    19     9    12    1
    20     9    13    1
    21     9    18    1
    22    10    11    1
    23    10    14    1
    24    10    16    1
    25    11    35    1
    26    12    16    1
    27    12    17    1
    28    12    36    1
    29    13    15    1
    30    13    19    1
    31    13    37    1
    32    14    15    1
    33    14    22    1
    34    15    21    1
    35    15    38    1
    36    16    39    1
    37    17    23    1
    38    17    25    1
    39    17    27    1
    40    18    26    1
    41    18    40    1
    42    19    20    1
    43    19    41    1
    44    19    42    1
    45    20    21    1
    46    20    24    1
    47    20    43    1
    48    21    44    1
    49    22    24    1
    50    22    45    1
    51    22    46    1
    52    23    47    1
    53    23    48    1
    54    24    49    1
    55    25    26    1
    56    25    50    1
    57    25    51    1
    58    26    52    1
    59    26    53    1
    60    27    54    1
    61    27    55    1
    62    28    56    1
    63    28    57    1
    64    29    30    1
    65    29    59    1
    66    29    60    1
    67    30    61    1
    68    30    62    1
    69    30    63    1
    70    31    64    1
    71    31    65    1
    72    31    66    1
    73    32    67    1
    74    32    68    1
    75    32    69    1
    76    33    70    1
    77    33    71    1
    78    33    72    1
    79    34    73    1
    80    34    74    1
    81    34    75    1
