@<TRIPOS>MOLECULE
IMPHY008904
 40 43 0 0 0
SMALL
GASTEIGER

@<TRIPOS>ATOM
      1 O           3.5725   -1.0752    0.0000 O.3     1  UNL1       -0.3757
      2 O           2.5393   -0.4607    0.0000 O.3     1  UNL1       -0.5033
      3 O           2.5354    1.5918    0.0000 O.3     1  UNL1       -0.5033
      4 N           6.9481    0.0668    0.0000 N.3     1  UNL1       -0.2850
      5 C           6.0786   -0.4352    0.0000 C.3     1  UNL1        0.0755
      6 C           5.0589   -0.6384    0.0000 C.3     1  UNL1        0.0039
      7 C           6.2886   -1.4110    0.0000 C.2     1  UNL1       -0.0256
      8 C           5.2090    0.0668    0.0000 C.ar    1  UNL1       -0.0158
      9 C           6.9481    1.0709    0.0000 C.3     1  UNL1        0.0043
     10 C           7.6882   -0.6030    0.0000 C.3     1  UNL1        0.0188
     11 C           4.5393   -1.3305    0.0000 C.3     1  UNL1        0.0790
     12 C           6.0786    1.5730    0.0000 C.3     1  UNL1       -0.0144
     13 C           5.2090    1.0709    0.0000 C.ar    1  UNL1       -0.0372
     14 C           7.2814   -1.5146    0.0000 C.2     1  UNL1       -0.0648
     15 C           5.7822   -2.0537    0.0000 C.2     1  UNL1       -0.0583
     16 C           4.6523   -2.2118    0.0000 C.2     1  UNL1       -0.0553
     17 C           4.3113   -0.4701    0.0000 C.ar    1  UNL1       -0.0110
     18 C           4.3113    1.6078    0.0000 C.ar    1  UNL1       -0.0130
     19 C           3.4015    0.0459    0.0000 C.ar    1  UNL1        0.1586
     20 C           3.4015    1.0918    0.0000 C.ar    1  UNL1        0.1585
     21 C           2.8679   -1.7848    0.0000 C.3     1  UNL1        0.0372
     22 H           5.1106   -0.0205    0.0000 H       1  UNL1        0.0318
     23 H           4.4794   -0.4178    0.0000 H       1  UNL1        0.0318
     24 H           7.5587    0.9633    0.0000 H       1  UNL1        0.0430
     25 H           7.1602    1.6536    0.0000 H       1  UNL1        0.0430
     26 H           8.2247   -0.9138    0.0000 H       1  UNL1        0.0470
     27 H           8.0536   -0.1022    0.0000 H       1  UNL1        0.0470
     28 H           5.1388   -1.4888    0.0000 H       1  UNL1        0.0641
     29 H           6.4771    2.0480    0.0000 H       1  UNL1        0.0326
     30 H           5.6800    2.0480    0.0000 H       1  UNL1        0.0326
     31 H           7.5914   -2.0515    0.0000 H       1  UNL1        0.0588
     32 H           6.0910   -2.5914    0.0000 H       1  UNL1        0.0619
     33 H           4.2760   -2.7046    0.0000 H       1  UNL1        0.0598
     34 H           4.3185   -1.0900    0.0000 H       1  UNL1        0.0659
     35 H           4.3185    2.2278    0.0000 H       1  UNL1        0.0658
     36 H           2.4280   -1.3480    0.0000 H       1  UNL1        0.0524
     37 H           2.4311   -2.2248    0.0000 H       1  UNL1        0.0524
     38 H           3.3079   -2.2216    0.0000 H       1  UNL1        0.0524
     39 H           2.0000   -0.1548    0.0000 H       1  UNL1        0.2923
     40 H           2.5354    2.2118    0.0000 H       1  UNL1        0.2923
@<TRIPOS>BOND
     1     1    11    1
     2     1    21    1
     3     2    19    1
     4     2    39    1
     5     3    20    1
     6     3    40    1
     7     4     5    1
     8     4     9    1
     9     4    10    1
    10     5     6    1
    11     5     7    1
    12     5     8    1
    13     6    11    1
    14     6    22    1
    15     6    23    1
    16     7    14    2
    17     7    15    1
    18     8    13   ar
    19     8    17   ar
    20     9    12    1
    21     9    24    1
    22     9    25    1
    23    10    14    1
    24    10    26    1
    25    10    27    1
    26    11    16    1
    27    11    28    1
    28    12    13    1
    29    12    29    1
    30    12    30    1
    31    13    18   ar
    32    14    31    1
    33    15    16    2
    34    15    32    1
    35    16    33    1
    36    17    19   ar
    37    17    34    1
    38    18    20   ar
    39    18    35    1
    40    19    20   ar
    41    21    36    1
    42    21    37    1
    43    21    38    1
