@<TRIPOS>MOLECULE
IMPHY002286
 120 121 0 0 0
SMALL
GASTEIGER

@<TRIPOS>ATOM
      1 O           4.2690   -8.5950    0.0000 O.3     1  UNL1       -0.3405
      2 O           6.0010   -8.5950    0.0000 O.3     1  UNL1       -0.3427
      3 O           6.0010  -10.5950    0.0000 O.3     1  UNL1       -0.3841
      4 O           4.2690  -11.5950    0.0000 O.3     1  UNL1       -0.3864
      5 O           2.5369  -10.5950    0.0000 O.3     1  UNL1       -0.3865
      6 O           2.5369   -7.5950    0.0000 O.3     1  UNL1       -0.3924
      7 C          17.2594    9.9050    0.0000 C.3     1  UNL1       -0.0099
      8 C          18.1254   10.4050    0.0000 C.3     1  UNL1       -0.0436
      9 C          18.1254   11.4050    0.0000 C.3     1  UNL1       -0.0486
     10 C          16.3933   10.4050    0.0000 C.2     1  UNL1       -0.0427
     11 C           5.1350  -10.0950    0.0000 C.3     1  UNL1        0.1341
     12 C           4.2690  -10.5950    0.0000 C.3     1  UNL1        0.1141
     13 C          17.2594   11.9050    0.0000 C.3     1  UNL1       -0.0314
     14 C           5.1350   -9.0950    0.0000 C.3     1  UNL1        0.1885
     15 C           3.4030  -10.0950    0.0000 C.3     1  UNL1        0.1119
     16 C          16.3933   11.4050    0.0000 C.2     1  UNL1       -0.0689
     17 C           3.4030   -9.0950    0.0000 C.3     1  UNL1        0.1130
     18 C          17.7594    9.0390    0.0000 C.3     1  UNL1       -0.0558
     19 C          16.7594    9.0390    0.0000 C.3     1  UNL1       -0.0558
     20 C           6.0010   -7.5950    0.0000 C.3     1  UNL1        0.0671
     21 C           6.0010   -6.5950    0.0000 C.3     1  UNL1       -0.0239
     22 C           2.5369   -8.5950    0.0000 C.3     1  UNL1        0.0730
     23 C          15.5273    9.9050    0.0000 C.2     1  UNL1       -0.0579
     24 C          15.5273   11.9050    0.0000 C.3     1  UNL1       -0.0432
     25 C           7.0010   -7.5950    0.0000 C.3     1  UNL1       -0.0360
     26 C           5.0010   -7.5950    0.0000 C.3     1  UNL1       -0.0360
     27 C           6.8671   -6.0950    0.0000 C.3     1  UNL1       -0.0468
     28 C           6.8671   -5.0950    0.0000 C.3     1  UNL1       -0.0316
     29 C          15.5273    8.9050    0.0000 C.2     1  UNL1       -0.0586
     30 C           7.7331   -4.5950    0.0000 C.2     1  UNL1       -0.0726
     31 C          14.6613    8.4050    0.0000 C.2     1  UNL1       -0.0504
     32 C           8.5991   -5.0950    0.0000 C.3     1  UNL1       -0.0435
     33 C           7.7331   -3.5950    0.0000 C.2     1  UNL1       -0.0628
     34 C          13.7953    8.9050    0.0000 C.3     1  UNL1       -0.0397
     35 C          14.6613    7.4050    0.0000 C.2     1  UNL1       -0.0588
     36 C           8.5991   -3.0950    0.0000 C.2     1  UNL1       -0.0616
     37 C          13.7953    6.9050    0.0000 C.2     1  UNL1       -0.0613
     38 C           8.5991   -2.0950    0.0000 C.2     1  UNL1       -0.0588
     39 C          13.7953    5.9050    0.0000 C.2     1  UNL1       -0.0588
     40 C           9.4651   -1.5950    0.0000 C.2     1  UNL1       -0.0504
     41 C          12.9292    5.4050    0.0000 C.2     1  UNL1       -0.0504
     42 C          10.3312   -2.0950    0.0000 C.3     1  UNL1       -0.0397
     43 C           9.4651   -0.5950    0.0000 C.2     1  UNL1       -0.0588
     44 C          12.0632    5.9050    0.0000 C.3     1  UNL1       -0.0397
     45 C          12.9292    4.4050    0.0000 C.2     1  UNL1       -0.0588
     46 C          10.3312   -0.0950    0.0000 C.2     1  UNL1       -0.0613
     47 C          12.0632    3.9050    0.0000 C.2     1  UNL1       -0.0615
     48 C          10.3312    0.9050    0.0000 C.2     1  UNL1       -0.0588
     49 C          12.0632    2.9050    0.0000 C.2     1  UNL1       -0.0615
     50 C          11.1972    1.4050    0.0000 C.2     1  UNL1       -0.0504
     51 C          11.1972    2.4050    0.0000 C.2     1  UNL1       -0.0588
     52 C          12.0632    0.9050    0.0000 C.3     1  UNL1       -0.0397
     53 H          18.3374    9.8224    0.0000 H       1  UNL1        0.0274
     54 H          18.7360   10.5127    0.0000 H       1  UNL1        0.0274
     55 H          18.7360   11.2973    0.0000 H       1  UNL1        0.0269
     56 H          18.3374   11.9876    0.0000 H       1  UNL1        0.0269
     57 H           5.1350  -10.9450    0.0000 H       1  UNL1        0.0671
     58 H           3.5329  -11.0200    0.0000 H       1  UNL1        0.0648
     59 H          17.6579   12.3799    0.0000 H       1  UNL1        0.0310
     60 H          16.8608   12.3799    0.0000 H       1  UNL1        0.0310
     61 H           5.1350   -8.4750    0.0000 H       1  UNL1        0.0938
     62 H           2.8660   -9.7850    0.0000 H       1  UNL1        0.0647
     63 H           3.4030   -8.4750    0.0000 H       1  UNL1        0.0647
     64 H          16.2224    9.3490    0.0000 H       1  UNL1        0.0238
     65 H          16.4494    8.5020    0.0000 H       1  UNL1        0.0238
     66 H          17.2963    8.7290    0.0000 H       1  UNL1        0.0238
     67 H          17.2224    8.7290    0.0000 H       1  UNL1        0.0238
     68 H          18.0694    8.5020    0.0000 H       1  UNL1        0.0238
     69 H          18.2963    9.3490    0.0000 H       1  UNL1        0.0238
     70 H           5.7890   -6.0124    0.0000 H       1  UNL1        0.0293
     71 H           5.3905   -6.7027    0.0000 H       1  UNL1        0.0293
     72 H           1.9264   -8.4873    0.0000 H       1  UNL1        0.0584
     73 H           2.3249   -9.1776    0.0000 H       1  UNL1        0.0584
     74 H          14.9904   10.2150    0.0000 H       1  UNL1        0.0621
     75 H          15.8373   12.4419    0.0000 H       1  UNL1        0.0275
     76 H          14.9904   12.2150    0.0000 H       1  UNL1        0.0275
     77 H          15.2173   11.3681    0.0000 H       1  UNL1        0.0275
     78 H           7.0010   -8.2150    0.0000 H       1  UNL1        0.0257
     79 H           7.6210   -7.5950    0.0000 H       1  UNL1        0.0257
     80 H           7.0010   -6.9750    0.0000 H       1  UNL1        0.0257
     81 H           5.0010   -6.9750    0.0000 H       1  UNL1        0.0257
     82 H           4.3810   -7.5950    0.0000 H       1  UNL1        0.0257
     83 H           5.0010   -8.2150    0.0000 H       1  UNL1        0.0257
     84 H           7.0791   -6.6776    0.0000 H       1  UNL1        0.0269
     85 H           7.4776   -5.9873    0.0000 H       1  UNL1        0.0269
     86 H           6.5380  -10.2850    0.0000 H       1  UNL1        0.2101
     87 H           3.7320  -11.9050    0.0000 H       1  UNL1        0.2100
     88 H           2.0000  -10.2850    0.0000 H       1  UNL1        0.2100
     89 H           6.6550   -4.5124    0.0000 H       1  UNL1        0.0310
     90 H           6.2565   -5.2027    0.0000 H       1  UNL1        0.0310
     91 H          16.0643    8.5950    0.0000 H       1  UNL1        0.0620
     92 H           2.0000   -7.2850    0.0000 H       1  UNL1        0.2095
     93 H           8.2891   -5.6319    0.0000 H       1  UNL1        0.0274
     94 H           9.1360   -5.4050    0.0000 H       1  UNL1        0.0274
     95 H           8.9091   -4.5581    0.0000 H       1  UNL1        0.0274
     96 H           7.1962   -3.2850    0.0000 H       1  UNL1        0.0617
     97 H          14.1053    9.4419    0.0000 H       1  UNL1        0.0278
     98 H          13.2583    9.2150    0.0000 H       1  UNL1        0.0278
     99 H          13.4853    8.3681    0.0000 H       1  UNL1        0.0278
    100 H          15.1982    7.0950    0.0000 H       1  UNL1        0.0620
    101 H           9.1360   -3.4050    0.0000 H       1  UNL1        0.0618
    102 H          13.2583    7.2150    0.0000 H       1  UNL1        0.0618
    103 H           8.0622   -1.7850    0.0000 H       1  UNL1        0.0620
    104 H          14.3322    5.5950    0.0000 H       1  UNL1        0.0620
    105 H          10.0212   -2.6319    0.0000 H       1  UNL1        0.0278
    106 H          10.8681   -2.4050    0.0000 H       1  UNL1        0.0278
    107 H          10.6412   -1.5581    0.0000 H       1  UNL1        0.0278
    108 H           8.9282   -0.2850    0.0000 H       1  UNL1        0.0620
    109 H          12.3732    6.4419    0.0000 H       1  UNL1        0.0278
    110 H          11.5263    6.2150    0.0000 H       1  UNL1        0.0278
    111 H          11.7532    5.3681    0.0000 H       1  UNL1        0.0278
    112 H          13.4662    4.0950    0.0000 H       1  UNL1        0.0620
    113 H          10.8681   -0.4050    0.0000 H       1  UNL1        0.0618
    114 H          11.5263    4.2150    0.0000 H       1  UNL1        0.0618
    115 H           9.7942    1.2150    0.0000 H       1  UNL1        0.0620
    116 H          12.6002    2.5950    0.0000 H       1  UNL1        0.0618
    117 H          10.6603    2.7150    0.0000 H       1  UNL1        0.0620
    118 H          11.7532    0.3681    0.0000 H       1  UNL1        0.0278
    119 H          12.6002    0.5950    0.0000 H       1  UNL1        0.0278
    120 H          12.3732    1.4419    0.0000 H       1  UNL1        0.0278
@<TRIPOS>BOND
     1     1    14    1
     2     1    17    1
     3    14     2    1
     4     2    20    1
     5     3    11    1
     6     3    86    1
     7     4    12    1
     8     4    87    1
     9    15     5    1
    10     5    88    1
    11     6    22    1
    12     6    92    1
    13     7     8    1
    14     7    10    1
    15     7    18    1
    16     7    19    1
    17     8     9    1
    18     8    53    1
    19     8    54    1
    20     9    13    1
    21     9    55    1
    22     9    56    1
    23    10    16    2
    24    10    23    1
    25    11    12    1
    26    11    14    1
    27    11    57    1
    28    12    15    1
    29    12    58    1
    30    13    16    1
    31    13    59    1
    32    13    60    1
    33    14    61    1
    34    15    17    1
    35    15    62    1
    36    16    24    1
    37    17    22    1
    38    17    63    1
    39    18    67    1
    40    18    68    1
    41    18    69    1
    42    19    64    1
    43    19    65    1
    44    19    66    1
    45    20    21    1
    46    20    25    1
    47    20    26    1
    48    21    27    1
    49    21    70    1
    50    21    71    1
    51    22    72    1
    52    22    73    1
    53    23    29    2
    54    23    74    1
    55    24    75    1
    56    24    76    1
    57    24    77    1
    58    25    78    1
    59    25    79    1
    60    25    80    1
    61    26    81    1
    62    26    82    1
    63    26    83    1
    64    27    28    1
    65    27    84    1
    66    27    85    1
    67    28    30    1
    68    28    89    1
    69    28    90    1
    70    29    31    1
    71    29    91    1
    72    30    32    1
    73    30    33    2
    74    31    34    1
    75    31    35    2
    76    32    93    1
    77    32    94    1
    78    32    95    1
    79    33    36    1
    80    33    96    1
    81    34    97    1
    82    34    98    1
    83    34    99    1
    84    35    37    1
    85    35   100    1
    86    36    38    2
    87    36   101    1
    88    37    39    2
    89    37   102    1
    90    38    40    1
    91    38   103    1
    92    39    41    1
    93    39   104    1
    94    40    42    1
    95    40    43    2
    96    41    44    1
    97    41    45    2
    98    42   105    1
    99    42   106    1
   100    42   107    1
   101    43    46    1
   102    43   108    1
   103    44   109    1
   104    44   110    1
   105    44   111    1
   106    45    47    1
   107    45   112    1
   108    46    48    2
   109    46   113    1
   110    47    49    2
   111    47   114    1
   112    48    50    1
   113    48   115    1
   114    49    51    1
   115    49   116    1
   116    50    51    2
   117    50    52    1
   118    51   117    1
   119    52   118    1
   120    52   119    1
   121    52   120    1
