@<TRIPOS>MOLECULE
IMPHY010444
 55 61 0 0 0
SMALL
GASTEIGER

@<TRIPOS>ATOM
      1 O           3.5532   -0.3994    0.0000 O.3     1  UNL1       -0.3572
      2 O           7.9933   -1.0537    0.0000 O.3     1  UNL1       -0.3869
      3 O           5.3766    2.2276    0.0000 O.2     1  UNL1       -0.2968
      4 N           4.4959    1.0827    0.0000 N.3     1  UNL1       -0.2735
      5 C           4.5400   -1.0036    0.0000 C.3     1  UNL1        0.0202
      6 C           4.6098   -2.0429    0.0000 C.3     1  UNL1       -0.0220
      7 C           5.3827   -1.5469    0.0000 C.3     1  UNL1        0.0247
      8 C           6.4044   -1.9014    0.0000 C.3     1  UNL1       -0.0158
      9 C           6.3105   -0.8641    0.0000 C.3     1  UNL1        0.0096
     10 C           5.4096   -0.4302    0.0000 C.3     1  UNL1       -0.0160
     11 C           2.9051   -1.2620    0.0000 C.3     1  UNL1        0.0113
     12 C           5.5483   -2.4948    0.0000 C.3     1  UNL1       -0.0441
     13 C           4.4499    0.0504    0.0000 C.3     1  UNL1        0.0683
     14 C           2.8470    0.3133    0.0000 C.3     1  UNL1        0.1181
     15 C           6.2037    0.3127    0.0000 C.3     1  UNL1       -0.0308
     16 C           2.6656   -0.2316    0.0000 C.3     1  UNL1       -0.0414
     17 C           7.2115   -0.4302    0.0000 C.3     1  UNL1        0.0829
     18 C           3.4718    0.4533    0.0000 C.3     1  UNL1       -0.0253
     19 C           5.1870    0.5448    0.0000 C.3     1  UNL1        0.0105
     20 C           6.8105    1.3266    0.0000 C.3     1  UNL1        0.0413
     21 C           2.0000   -1.6873    0.0000 C.3     1  UNL1       -0.0557
     22 C           7.4340    0.5448    0.0000 C.2     1  UNL1       -0.0378
     23 C           5.8105    1.3266    0.0000 C.2     1  UNL1        0.1408
     24 C           4.5955    2.0778    0.0000 C.3     1  UNL1       -0.0013
     25 C           8.4089    0.7673    0.0000 C.2     1  UNL1       -0.0963
     26 C           3.7836    2.6615    0.0000 C.3     1  UNL1       -0.0523
     27 H           4.6668   -2.8910    0.0000 H       1  UNL1        0.0314
     28 H           5.0350   -2.3226    0.0000 H       1  UNL1        0.0473
     29 H           7.2517   -1.8347    0.0000 H       1  UNL1        0.0323
     30 H           4.5619   -0.4937    0.0000 H       1  UNL1        0.0318
     31 H           5.1876   -2.9992    0.0000 H       1  UNL1        0.0272
     32 H           5.9835   -2.9364    0.0000 H       1  UNL1        0.0272
     33 H           5.2993    0.0819    0.0000 H       1  UNL1        0.0603
     34 H           2.3180    0.6366    0.0000 H       1  UNL1        0.0775
     35 H           5.7959    0.7797    0.0000 H       1  UNL1        0.0281
     36 H           5.6336    0.0689    0.0000 H       1  UNL1        0.0281
     37 H           2.3439    0.2983    0.0000 H       1  UNL1        0.0273
     38 H           2.0914   -0.4656    0.0000 H       1  UNL1        0.0273
     39 H           7.1421   -1.0463    0.0000 H       1  UNL1        0.0646
     40 H           3.7955    0.9820    0.0000 H       1  UNL1        0.0290
     41 H           3.0008    0.8564    0.0000 H       1  UNL1        0.0290
     42 H           4.8005    1.0295    0.0000 H       1  UNL1        0.0345
     43 H           4.6284    0.2758    0.0000 H       1  UNL1        0.0345
     44 H           6.9997    2.1553    0.0000 H       1  UNL1        0.0424
     45 H           1.7363   -1.1262    0.0000 H       1  UNL1        0.0236
     46 H           1.4389   -1.9510    0.0000 H       1  UNL1        0.0236
     47 H           2.2637   -2.2485    0.0000 H       1  UNL1        0.0236
     48 H           5.1923    1.9098    0.0000 H       1  UNL1        0.0425
     49 H           4.8645    2.6364    0.0000 H       1  UNL1        0.0425
     50 H           8.5705   -0.8271    0.0000 H       1  UNL1        0.2102
     51 H           8.8306    0.3128    0.0000 H       1  UNL1        0.0535
     52 H           8.5917    1.3597    0.0000 H       1  UNL1        0.0535
     53 H           4.1455    3.1649    0.0000 H       1  UNL1        0.0242
     54 H           3.2802    3.0234    0.0000 H       1  UNL1        0.0242
     55 H           3.4216    2.1581    0.0000 H       1  UNL1        0.0242
@<TRIPOS>BOND
     1     1    13    1
     2     1    14    1
     3    17     2    1
     4     2    50    1
     5     3    23    2
     6     4     7    1
     7     4    14    1
     8     4    24    1
     9     5     6    1
    10     5     7    1
    11     5    10    1
    12     5    13    1
    13     6    11    1
    14     6    12    1
    15     6    27    1
    16     7     8    1
    17     7    28    1
    18     8     9    1
    19     8    12    1
    20     8    29    1
    21     9    10    1
    22     9    15    1
    23     9    17    1
    24    10    19    1
    25    10    30    1
    26    11    14    1
    27    11    16    1
    28    11    21    1
    29    12    31    1
    30    12    32    1
    31    13    18    1
    32    13    33    1
    33    14    34    1
    34    15    20    1
    35    15    35    1
    36    15    36    1
    37    16    18    1
    38    16    37    1
    39    16    38    1
    40    17    22    1
    41    17    39    1
    42    18    40    1
    43    18    41    1
    44    19    23    1
    45    19    42    1
    46    19    43    1
    47    20    22    1
    48    20    23    1
    49    20    44    1
    50    21    45    1
    51    21    46    1
    52    21    47    1
    53    22    25    2
    54    24    26    1
    55    24    48    1
    56    24    49    1
    57    25    51    1
    58    25    52    1
    59    26    53    1
    60    26    54    1
    61    26    55    1
