@<TRIPOS>MOLECULE
IMPHY012247
 28 29 0 0 0
SMALL
GASTEIGER

@<TRIPOS>ATOM
      1 C           4.5981    0.5000    0.0000 C.3     1  UNL1       -0.0321
      2 C           5.4646   -0.0000    0.0000 C.3     1  UNL1       -0.0287
      3 C           4.5981   -0.5000    0.0000 C.3     1  UNL1       -0.0323
      4 C           3.7320    1.0000    0.0000 C.3     1  UNL1       -0.0468
      5 C           3.7320   -1.0000    0.0000 C.3     1  UNL1       -0.0492
      6 C           2.8660    0.5000    0.0000 C.3     1  UNL1       -0.0436
      7 C           2.8660   -0.5000    0.0000 C.3     1  UNL1       -0.0502
      8 C           5.9646   -0.8660    0.0000 C.3     1  UNL1       -0.0593
      9 C           5.9646    0.8660    0.0000 C.3     1  UNL1       -0.0593
     10 C           2.0000    1.0000    0.0000 C.3     1  UNL1       -0.0624
     11 H           4.9080    1.0370    0.0000 H       1  UNL1        0.0309
     12 H           4.9080   -1.0370    0.0000 H       1  UNL1        0.0309
     13 H           4.1306    1.4750    0.0000 H       1  UNL1        0.0271
     14 H           3.3335    1.4750    0.0000 H       1  UNL1        0.0271
     15 H           3.3335   -1.4750    0.0000 H       1  UNL1        0.0268
     16 H           4.1306   -1.4750    0.0000 H       1  UNL1        0.0268
     17 H           2.8660    1.1200    0.0000 H       1  UNL1        0.0298
     18 H           2.2554   -0.3923    0.0000 H       1  UNL1        0.0268
     19 H           2.6540   -1.0826    0.0000 H       1  UNL1        0.0268
     20 H           5.4277   -1.1760    0.0000 H       1  UNL1        0.0235
     21 H           6.2746   -1.4030    0.0000 H       1  UNL1        0.0235
     22 H           6.5016   -0.5560    0.0000 H       1  UNL1        0.0235
     23 H           6.5016    0.5560    0.0000 H       1  UNL1        0.0235
     24 H           6.2746    1.4030    0.0000 H       1  UNL1        0.0235
     25 H           5.4277    1.1760    0.0000 H       1  UNL1        0.0235
     26 H           2.3100    1.5369    0.0000 H       1  UNL1        0.0232
     27 H           1.4631    1.3100    0.0000 H       1  UNL1        0.0232
     28 H           1.6900    0.4631    0.0000 H       1  UNL1        0.0232
@<TRIPOS>BOND
     1     1     2    1
     2     1     3    1
     3     1     4    1
     4     1    11    1
     5     2     3    1
     6     2     8    1
     7     2     9    1
     8     3     5    1
     9     3    12    1
    10     4     6    1
    11     4    13    1
    12     4    14    1
    13     5     7    1
    14     5    15    1
    15     5    16    1
    16     6     7    1
    17     6    10    1
    18     6    17    1
    19     7    18    1
    20     7    19    1
    21     8    20    1
    22     8    21    1
    23     8    22    1
    24     9    23    1
    25     9    24    1
    26     9    25    1
    27    10    26    1
    28    10    27    1
    29    10    28    1
