@<TRIPOS>MOLECULE
IMPHY016330
 41 41 0 0 0
SMALL
GASTEIGER

@<TRIPOS>ATOM
      1 O           5.9641   -1.9145    0.0000 O.3     1  UNL1       -0.3807
      2 O           2.8660    0.4515    0.0000 O.2     1  UNL1       -0.2873
      3 C           4.5981    1.4515    0.0000 C.3     1  UNL1       -0.0092
      4 C           2.8660   -1.5485    0.0000 C.3     1  UNL1       -0.0092
      5 C           4.5981    0.4515    0.0000 C.2     1  UNL1        0.0040
      6 C           3.7320   -1.0485    0.0000 C.2     1  UNL1        0.0040
      7 C           5.4641   -1.0485    0.0000 C.3     1  UNL1        0.1008
      8 C           3.7320   -0.0485    0.0000 C.2     1  UNL1        0.1859
      9 C           5.4641   -0.0485    0.0000 C.2     1  UNL1       -0.0419
     10 C           4.5981   -1.5485    0.0000 C.2     1  UNL1       -0.0419
     11 C           4.5981    2.4515    0.0000 C.3     1  UNL1       -0.0559
     12 C           5.5981    1.4515    0.0000 C.3     1  UNL1       -0.0559
     13 C           3.5981    1.4515    0.0000 C.3     1  UNL1       -0.0559
     14 C           2.0000   -2.0485    0.0000 C.3     1  UNL1       -0.0559
     15 C           3.3660   -2.4145    0.0000 C.3     1  UNL1       -0.0559
     16 C           2.3660   -0.6825    0.0000 C.3     1  UNL1       -0.0559
     17 C           6.4641   -1.0485    0.0000 C.3     1  UNL1       -0.0287
     18 H           6.0010    0.2615    0.0000 H       1  UNL1        0.0607
     19 H           4.5981   -2.1685    0.0000 H       1  UNL1        0.0607
     20 H           5.2181    2.4515    0.0000 H       1  UNL1        0.0238
     21 H           4.5981    3.0715    0.0000 H       1  UNL1        0.0238
     22 H           3.9781    2.4515    0.0000 H       1  UNL1        0.0238
     23 H           5.5981    0.8315    0.0000 H       1  UNL1        0.0238
     24 H           6.2181    1.4515    0.0000 H       1  UNL1        0.0238
     25 H           5.5981    2.0715    0.0000 H       1  UNL1        0.0238
     26 H           3.5981    2.0715    0.0000 H       1  UNL1        0.0238
     27 H           2.9781    1.4515    0.0000 H       1  UNL1        0.0238
     28 H           3.5981    0.8315    0.0000 H       1  UNL1        0.0238
     29 H           1.6900   -1.5116    0.0000 H       1  UNL1        0.0238
     30 H           1.4631   -2.3585    0.0000 H       1  UNL1        0.0238
     31 H           2.3100   -2.5855    0.0000 H       1  UNL1        0.0238
     32 H           2.8291   -2.7245    0.0000 H       1  UNL1        0.0238
     33 H           3.6760   -2.9515    0.0000 H       1  UNL1        0.0238
     34 H           3.9030   -2.1045    0.0000 H       1  UNL1        0.0238
     35 H           2.9030   -0.3725    0.0000 H       1  UNL1        0.0238
     36 H           2.0560   -0.1456    0.0000 H       1  UNL1        0.0238
     37 H           1.8291   -0.9925    0.0000 H       1  UNL1        0.0238
     38 H           6.4641   -1.6685    0.0000 H       1  UNL1        0.0264
     39 H           7.0841   -1.0485    0.0000 H       1  UNL1        0.0264
     40 H           6.4641   -0.4285    0.0000 H       1  UNL1        0.0264
     41 H           5.6541   -2.4515    0.0000 H       1  UNL1        0.2110
@<TRIPOS>BOND
     1     1     7    1
     2     1    41    1
     3     2     8    2
     4     3     5    1
     5     3    11    1
     6     3    12    1
     7     3    13    1
     8     4     6    1
     9     4    14    1
    10     4    15    1
    11     4    16    1
    12     5     8    1
    13     5     9    2
    14     6     8    1
    15     6    10    2
    16     7     9    1
    17     7    10    1
    18     7    17    1
    19     9    18    1
    20    10    19    1
    21    11    20    1
    22    11    21    1
    23    11    22    1
    24    12    23    1
    25    12    24    1
    26    12    25    1
    27    13    26    1
    28    13    27    1
    29    13    28    1
    30    14    29    1
    31    14    30    1
    32    14    31    1
    33    15    32    1
    34    15    33    1
    35    15    34    1
    36    16    35    1
    37    16    36    1
    38    16    37    1
    39    17    38    1
    40    17    39    1
    41    17    40    1
