@<TRIPOS>MOLECULE
IMPHY011401
 58 61 0 0 0
SMALL
GASTEIGER

@<TRIPOS>ATOM
      1 O           5.4641   -1.0000    0.0000 O.3     1  UNL1       -0.3609
      2 O           2.8660   -0.5000    0.0000 O.3     1  UNL1       -0.3862
      3 O           2.8660   -2.5000    0.0000 O.3     1  UNL1       -0.3865
      4 O           4.5981   -3.5000    0.0000 O.3     1  UNL1       -0.3865
      5 O           6.3580    0.4653    0.0000 O.2     1  UNL1       -0.4540
      6 O           6.3301   -3.5000    0.0000 O.3     1  UNL1       -0.3924
      7 O           2.8660    0.5000    0.0000 O.3     1  UNL1       -0.4945
      8 O           4.5981    3.5000    0.0000 O.3     1  UNL1       -0.5058
      9 O           6.3465    3.5346    0.0000 O.2     1  UNL1       -0.2869
     10 O           8.9846   -2.0275    0.0000 O.3     1  UNL1       -0.4914
     11 O          10.7205   -1.0341    0.0000 O.3     1  UNL1       -0.5033
     12 C           3.7320   -1.0000    0.0000 C.3     1  UNL1        0.1139
     13 C           3.7320   -2.0000    0.0000 C.3     1  UNL1        0.1121
     14 C           4.5981   -0.5000    0.0000 C.3     1  UNL1        0.1193
     15 C           4.5981   -2.5000    0.0000 C.3     1  UNL1        0.1117
     16 C           5.4641   -2.0000    0.0000 C.3     1  UNL1        0.1108
     17 C           4.5981    0.5000    0.0000 C.ar    1  UNL1        0.0684
     18 C           6.3301   -2.5000    0.0000 C.3     1  UNL1        0.0729
     19 C           5.4641    1.0000    0.0000 C.ar    1  UNL1        0.1520
     20 C           3.7320    1.0000    0.0000 C.ar    1  UNL1        0.1328
     21 C           5.4641    2.0000    0.0000 C.ar    1  UNL1        0.1058
     22 C           3.7320    2.0000    0.0000 C.ar    1  UNL1        0.0228
     23 C           4.5981    2.5000    0.0000 C.ar    1  UNL1        0.1347
     24 C           6.3580    2.5347    0.0000 C.ar    1  UNL1        0.1966
     25 C           7.2641    0.9792    0.0000 C.ar    1  UNL1        0.1394
     26 C           7.2641    2.0208    0.0000 C.ar    1  UNL1        0.0288
     27 C           8.1282    0.4758    0.0000 C.ar    1  UNL1        0.0211
     28 C           2.0000    1.0000    0.0000 C.3     1  UNL1        0.0788
     29 C           8.1244   -0.5241    0.0000 C.ar    1  UNL1       -0.0057
     30 C           8.9962    0.9725    0.0000 C.ar    1  UNL1       -0.0474
     31 C           8.9884   -1.0275    0.0000 C.ar    1  UNL1        0.1619
     32 C           9.8602    0.4692    0.0000 C.ar    1  UNL1       -0.0159
     33 C           9.8564   -0.5308    0.0000 C.ar    1  UNL1        0.1585
     34 C           9.8487   -2.5308    0.0000 C.3     1  UNL1        0.0790
     35 H           3.7320   -0.3800    0.0000 H       1  UNL1        0.0649
     36 H           3.7320   -2.6200    0.0000 H       1  UNL1        0.0647
     37 H           5.3342   -0.0750    0.0000 H       1  UNL1        0.0676
     38 H           5.1350   -2.8100    0.0000 H       1  UNL1        0.0647
     39 H           6.0010   -1.6900    0.0000 H       1  UNL1        0.0646
     40 H           6.9407   -2.6077    0.0000 H       1  UNL1        0.0584
     41 H           6.5422   -1.9174    0.0000 H       1  UNL1        0.0584
     42 H           2.3291   -0.8100    0.0000 H       1  UNL1        0.2100
     43 H           2.8660   -3.1200    0.0000 H       1  UNL1        0.2100
     44 H           4.0611   -3.8100    0.0000 H       1  UNL1        0.2100
     45 H           3.1951    2.3100    0.0000 H       1  UNL1        0.0691
     46 H           6.8671   -3.8100    0.0000 H       1  UNL1        0.2095
     47 H           7.7998    2.3329    0.0000 H       1  UNL1        0.0693
     48 H           2.3100    1.5369    0.0000 H       1  UNL1        0.0660
     49 H           1.4631    1.3100    0.0000 H       1  UNL1        0.0660
     50 H           1.6900    0.4631    0.0000 H       1  UNL1        0.0660
     51 H           4.0611    3.8100    0.0000 H       1  UNL1        0.2922
     52 H           7.5862   -0.8321    0.0000 H       1  UNL1        0.0662
     53 H           8.9985    1.5925    0.0000 H       1  UNL1        0.0626
     54 H          10.3984    0.7771    0.0000 H       1  UNL1        0.0655
     55 H          11.2586   -0.7262    0.0000 H       1  UNL1        0.2923
     56 H           9.5366   -3.0665    0.0000 H       1  UNL1        0.0660
     57 H          10.3844   -2.8429    0.0000 H       1  UNL1        0.0660
     58 H          10.1607   -1.9951    0.0000 H       1  UNL1        0.0660
@<TRIPOS>BOND
     1     1    14    1
     2     1    16    1
     3     2    12    1
     4     2    42    1
     5    13     3    1
     6     3    43    1
     7    15     4    1
     8     4    44    1
     9     5    19   ar
    10     5    25   ar
    11     6    18    1
    12     6    46    1
    13     7    20    1
    14     7    28    1
    15     8    23    1
    16     8    51    1
    17     9    24    2
    18    10    31    1
    19    10    34    1
    20    11    33    1
    21    11    55    1
    22    12    13    1
    23    12    14    1
    24    12    35    1
    25    13    15    1
    26    13    36    1
    27    14    17    1
    28    14    37    1
    29    15    16    1
    30    15    38    1
    31    16    18    1
    32    16    39    1
    33    17    19   ar
    34    17    20   ar
    35    18    40    1
    36    18    41    1
    37    19    21   ar
    38    20    22   ar
    39    21    23   ar
    40    21    24   ar
    41    22    23   ar
    42    22    45    1
    43    24    26   ar
    44    25    26   ar
    45    25    27    1
    46    26    47    1
    47    27    29   ar
    48    27    30   ar
    49    28    48    1
    50    28    49    1
    51    28    50    1
    52    29    31   ar
    53    29    52    1
    54    30    32   ar
    55    30    53    1
    56    31    33   ar
    57    32    33   ar
    58    32    54    1
    59    34    56    1
    60    34    57    1
    61    34    58    1
