@<TRIPOS>MOLECULE
IMPHY002522
 58 61 0 0 0
SMALL
GASTEIGER

@<TRIPOS>ATOM
      1 O          10.7586   -1.1306    0.0000 O.3     1  UNL1       -0.4827
      2 O          13.3528   -1.6506    0.0000 O.3     1  UNL1       -0.3875
      3 O          12.5358    1.8872    0.0000 O.3     1  UNL1       -0.5064
      4 O           8.0901   -1.6756    0.0000 O.2     1  UNL1       -0.4618
      5 O           8.0785    1.3936    0.0000 O.2     1  UNL1       -0.2863
      6 O           6.3301    1.3591    0.0000 O.3     1  UNL1       -0.5055
      7 O           4.5981   -1.6409    0.0000 O.3     1  UNL1       -0.5062
      8 C          11.6208   -1.6373    0.0000 C.3     1  UNL1        0.1310
      9 C          12.4906   -1.1440    0.0000 C.3     1  UNL1        0.0984
     10 C          12.4983   -0.1440    0.0000 C.3     1  UNL1        0.0091
     11 C          11.6362    0.3627    0.0000 C.ar    1  UNL1        0.0388
     12 C          10.7663   -0.1306    0.0000 C.ar    1  UNL1        0.1360
     13 C          12.1141   -2.5071    0.0000 C.3     1  UNL1       -0.0227
     14 C          11.1141   -2.4994    0.0000 C.3     1  UNL1       -0.0227
     15 C           9.8602    0.3832    0.0000 C.ar    1  UNL1        0.0309
     16 C          11.6603    1.4040    0.0000 C.ar    1  UNL1        0.1236
     17 C           9.8602    1.4248    0.0000 C.ar    1  UNL1       -0.0469
     18 C           8.9962   -0.1201    0.0000 C.ar    1  UNL1        0.0679
     19 C          10.7663    1.9387    0.0000 C.ar    1  UNL1       -0.0191
     20 C           8.0901    0.3937    0.0000 C.ar    1  UNL1        0.2038
     21 C           7.1962   -0.1409    0.0000 C.ar    1  UNL1        0.1063
     22 C           8.9962   -1.1618    0.0000 C.ar    1  UNL1        0.1040
     23 C           7.1962   -1.1409    0.0000 C.ar    1  UNL1        0.1454
     24 C           6.3301    0.3591    0.0000 C.ar    1  UNL1        0.1381
     25 C           5.4641   -0.1409    0.0000 C.ar    1  UNL1        0.0400
     26 C           6.3301   -1.6409    0.0000 C.ar    1  UNL1        0.0234
     27 C           5.4641   -1.1409    0.0000 C.ar    1  UNL1        0.1273
     28 C           4.5981    0.3591    0.0000 C.3     1  UNL1       -0.0023
     29 C           3.7320   -0.1409    0.0000 C.2     1  UNL1       -0.0807
     30 C           2.8660    0.3591    0.0000 C.2     1  UNL1       -0.0793
     31 C           2.0000   -0.1409    0.0000 C.3     1  UNL1       -0.0440
     32 C           2.8660    1.3591    0.0000 C.3     1  UNL1       -0.0440
     33 H          12.4858   -1.7639    0.0000 H       1  UNL1        0.0636
     34 H          13.1081   -0.2564    0.0000 H       1  UNL1        0.0342
     35 H          12.7149    0.4370    0.0000 H       1  UNL1        0.0342
     36 H          11.5748   -2.8130    0.0000 H       1  UNL1        0.0269
     37 H          12.4199   -3.0464    0.0000 H       1  UNL1        0.0269
     38 H          12.6534   -2.2013    0.0000 H       1  UNL1        0.0269
     39 H          10.5796   -2.1853    0.0000 H       1  UNL1        0.0269
     40 H          10.8000   -3.0340    0.0000 H       1  UNL1        0.0269
     41 H          11.6486   -2.8136    0.0000 H       1  UNL1        0.0269
     42 H          13.8921   -1.3448    0.0000 H       1  UNL1        0.2100
     43 H           9.3245    1.7369    0.0000 H       1  UNL1        0.0626
     44 H          10.7735    2.5586    0.0000 H       1  UNL1        0.0654
     45 H           9.5319   -1.4738    0.0000 H       1  UNL1        0.1037
     46 H          12.5477    2.5071    0.0000 H       1  UNL1        0.2921
     47 H           6.3301   -2.2609    0.0000 H       1  UNL1        0.0691
     48 H           4.9966    0.8340    0.0000 H       1  UNL1        0.0358
     49 H           4.1996    0.8340    0.0000 H       1  UNL1        0.0358
     50 H           3.7320   -0.7609    0.0000 H       1  UNL1        0.0575
     51 H           5.7932    1.6691    0.0000 H       1  UNL1        0.2922
     52 H           4.5981   -2.2609    0.0000 H       1  UNL1        0.2921
     53 H           1.6900    0.3960    0.0000 H       1  UNL1        0.0274
     54 H           3.4860    1.3591    0.0000 H       1  UNL1        0.0274
     55 H           2.8660    1.9791    0.0000 H       1  UNL1        0.0274
     56 H           2.2460    1.3591    0.0000 H       1  UNL1        0.0274
     57 H           1.4631   -0.4509    0.0000 H       1  UNL1        0.0274
     58 H           2.3100   -0.6779    0.0000 H       1  UNL1        0.0274
@<TRIPOS>BOND
     1     1     8    1
     2     1    12    1
     3     2     9    1
     4     2    42    1
     5     3    16    1
     6     3    46    1
     7     4    22   ar
     8     4    23   ar
     9     5    20    2
    10     6    24    1
    11     6    51    1
    12     7    27    1
    13     7    52    1
    14     8     9    1
    15     8    13    1
    16     8    14    1
    17     9    10    1
    18     9    33    1
    19    10    11    1
    20    10    34    1
    21    10    35    1
    22    11    12   ar
    23    11    16   ar
    24    12    15   ar
    25    13    36    1
    26    13    37    1
    27    13    38    1
    28    14    39    1
    29    14    40    1
    30    14    41    1
    31    15    17   ar
    32    15    18    1
    33    16    19   ar
    34    17    19   ar
    35    17    43    1
    36    18    20   ar
    37    18    22   ar
    38    19    44    1
    39    20    21   ar
    40    21    23   ar
    41    21    24   ar
    42    22    45    1
    43    23    26   ar
    44    24    25   ar
    45    25    27   ar
    46    25    28    1
    47    26    27   ar
    48    26    47    1
    49    28    29    1
    50    28    48    1
    51    28    49    1
    52    29    30    2
    53    29    50    1
    54    30    31    1
    55    30    32    1
    56    31    53    1
    57    31    57    1
    58    31    58    1
    59    32    54    1
    60    32    55    1
    61    32    56    1
