@<TRIPOS>MOLECULE
IMPHY006826
 84 88 0 0 0
SMALL
GASTEIGER

@<TRIPOS>ATOM
      1 O           5.3307    0.1978    0.0000 O.3     1  UNL1       -0.3915
      2 O           4.3792   -0.2452    0.0000 O.3     1  UNL1       -0.3911
      3 O           2.5357   -3.3545    0.0000 O.3     1  UNL1       -0.3912
      4 O           7.9891    3.6775    0.0000 O.3     1  UNL1       -0.3907
      5 C           7.0628   -1.8022    0.0000 C.3     1  UNL1       -0.0206
      6 C           7.9288   -1.3022    0.0000 C.3     1  UNL1       -0.0231
      7 C           6.1968   -1.3022    0.0000 C.3     1  UNL1       -0.0011
      8 C           7.9288   -0.3022    0.0000 C.3     1  UNL1       -0.0289
      9 C           5.2868   -1.8090    0.0000 C.3     1  UNL1        0.0030
     10 C           8.8228    0.2325    0.0000 C.3     1  UNL1       -0.0256
     11 C           9.7288   -0.2814    0.0000 C.3     1  UNL1       -0.0284
     12 C           5.2787   -2.8506    0.0000 C.3     1  UNL1       -0.0254
     13 C           6.1968   -0.3022    0.0000 C.3     1  UNL1        0.0594
     14 C           7.0789   -2.8437    0.0000 C.3     1  UNL1       -0.0465
     15 C           8.8228   -1.8369    0.0000 C.3     1  UNL1       -0.0463
     16 C           7.0628    0.1978    0.0000 C.3     1  UNL1       -0.0229
     17 C           6.1808   -3.3715    0.0000 C.3     1  UNL1       -0.0485
     18 C           9.7288   -1.3230    0.0000 C.3     1  UNL1       -0.0468
     19 C           9.0329    1.2464    0.0000 C.3     1  UNL1       -0.0144
     20 C           4.3433   -3.4004    0.0000 C.3     1  UNL1       -0.0054
     21 C           4.3599   -1.2450    0.0000 C.3     1  UNL1        0.0636
     22 C           7.7056   -2.5682    0.0000 C.3     1  UNL1       -0.0587
     23 C           8.2709   -2.2419    0.0000 C.3     1  UNL1       -0.0588
     24 C          10.4911    0.4194    0.0000 C.3     1  UNL1       -0.0468
     25 C          10.0619    1.3617    0.0000 C.3     1  UNL1       -0.0457
     26 C           5.2945   -0.8091    0.0000 C.3     1  UNL1       -0.0566
     27 C           3.4037   -2.8579    0.0000 C.3     1  UNL1        0.0630
     28 C           3.4120   -1.7729    0.0000 C.3     1  UNL1        0.0003
     29 C          10.5987   -0.7747    0.0000 C.3     1  UNL1       -0.0593
     30 C           3.8467   -4.2683    0.0000 C.3     1  UNL1       -0.0572
     31 C           4.8466   -4.2645    0.0000 C.3     1  UNL1       -0.0572
     32 C           8.3593    1.9855    0.0000 C.2     1  UNL1       -0.0482
     33 C           8.6626    2.9384    0.0000 C.3     1  UNL1        0.0653
     34 C           7.3824    1.7718    0.0000 C.2     1  UNL1       -0.0970
     35 H           6.9329   -0.8772    0.0000 H       1  UNL1        0.0337
     36 H           7.9223    0.5478    0.0000 H       1  UNL1        0.0310
     37 H           8.1300    0.7250    0.0000 H       1  UNL1        0.0315
     38 H           5.2820   -3.7006    0.0000 H       1  UNL1        0.0313
     39 H           6.1968    0.3178    0.0000 H       1  UNL1        0.0596
     40 H           7.2969   -3.4241    0.0000 H       1  UNL1        0.0271
     41 H           7.6880   -2.7282    0.0000 H       1  UNL1        0.0271
     42 H           8.4182   -2.3066    0.0000 H       1  UNL1        0.0271
     43 H           9.2164   -2.3159    0.0000 H       1  UNL1        0.0271
     44 H           7.4613    0.6727    0.0000 H       1  UNL1        0.0293
     45 H           6.6643    0.6727    0.0000 H       1  UNL1        0.0293
     46 H           5.7835   -3.8474    0.0000 H       1  UNL1        0.0268
     47 H           6.5818   -3.8444    0.0000 H       1  UNL1        0.0268
     48 H           9.9379   -1.9067    0.0000 H       1  UNL1        0.0271
     49 H          10.3397   -1.2169    0.0000 H       1  UNL1        0.0271
     50 H           9.2513    1.8266    0.0000 H       1  UNL1        0.0349
     51 H           4.9033   -0.9464    0.0000 H       1  UNL1        0.0600
     52 H           7.2306   -2.9668    0.0000 H       1  UNL1        0.0235
     53 H           8.1041   -3.0432    0.0000 H       1  UNL1        0.0235
     54 H           8.1805   -2.1697    0.0000 H       1  UNL1        0.0235
     55 H           7.6884   -2.4540    0.0000 H       1  UNL1        0.0235
     56 H           8.4830   -2.8244    0.0000 H       1  UNL1        0.0235
     57 H           8.8535   -2.0298    0.0000 H       1  UNL1        0.0235
     58 H          10.8604   -0.0787    0.0000 H       1  UNL1        0.0271
     59 H          11.0252    0.7343    0.0000 H       1  UNL1        0.0271
     60 H          10.6500    1.5580    0.0000 H       1  UNL1        0.0271
     61 H           9.9285    1.9671    0.0000 H       1  UNL1        0.0271
     62 H           5.9145   -0.8139    0.0000 H       1  UNL1        0.0236
     63 H           5.2993   -0.1891    0.0000 H       1  UNL1        0.0236
     64 H           4.6745   -0.8043    0.0000 H       1  UNL1        0.0236
     65 H           3.4025   -3.4779    0.0000 H       1  UNL1        0.0599
     66 H           3.2075   -1.1876    0.0000 H       1  UNL1        0.0315
     67 H           2.8004   -1.8743    0.0000 H       1  UNL1        0.0315
     68 H          10.2928   -1.3140    0.0000 H       1  UNL1        0.0235
     69 H          11.1380   -1.0805    0.0000 H       1  UNL1        0.0235
     70 H          10.9045   -0.2354    0.0000 H       1  UNL1        0.0235
     71 H           3.3085   -3.9604    0.0000 H       1  UNL1        0.0236
     72 H           3.5387   -4.8064    0.0000 H       1  UNL1        0.0236
     73 H           4.3848   -4.5762    0.0000 H       1  UNL1        0.0236
     74 H           4.3109   -4.5765    0.0000 H       1  UNL1        0.0236
     75 H           5.1587   -4.8002    0.0000 H       1  UNL1        0.0236
     76 H           5.3824   -3.9524    0.0000 H       1  UNL1        0.0236
     77 H           5.3307    0.8178    0.0000 H       1  UNL1        0.2098
     78 H           3.8483    0.0751    0.0000 H       1  UNL1        0.2098
     79 H           2.0000   -3.0425    0.0000 H       1  UNL1        0.2098
     80 H           9.2118    2.6506    0.0000 H       1  UNL1        0.0604
     81 H           9.0414    3.4292    0.0000 H       1  UNL1        0.0604
     82 H           6.9648    2.2300    0.0000 H       1  UNL1        0.0535
     83 H           7.1944    1.1810    0.0000 H       1  UNL1        0.0535
     84 H           8.1771    4.2683    0.0000 H       1  UNL1        0.2098
@<TRIPOS>BOND
     1    13     1    1
     2     1    77    1
     3    21     2    1
     4     2    78    1
     5    27     3    1
     6     3    79    1
     7     4    33    1
     8     4    84    1
     9     5     6    1
    10     5     7    1
    11     5    14    1
    12     5    22    1
    13     6     8    1
    14     6    15    1
    15     6    23    1
    16     7     9    1
    17     7    13    1
    18     7    35    1
    19     8    10    1
    20     8    16    1
    21     8    36    1
    22     9    12    1
    23     9    21    1
    24     9    26    1
    25    10    11    1
    26    10    19    1
    27    10    37    1
    28    11    18    1
    29    11    24    1
    30    11    29    1
    31    12    17    1
    32    12    20    1
    33    12    38    1
    34    13    16    1
    35    13    39    1
    36    14    17    1
    37    14    40    1
    38    14    41    1
    39    15    18    1
    40    15    42    1
    41    15    43    1
    42    16    44    1
    43    16    45    1
    44    17    46    1
    45    17    47    1
    46    18    48    1
    47    18    49    1
    48    19    25    1
    49    19    32    1
    50    19    50    1
    51    20    27    1
    52    20    30    1
    53    20    31    1
    54    21    28    1
    55    21    51    1
    56    22    52    1
    57    22    53    1
    58    22    54    1
    59    23    55    1
    60    23    56    1
    61    23    57    1
    62    24    25    1
    63    24    58    1
    64    24    59    1
    65    25    60    1
    66    25    61    1
    67    26    62    1
    68    26    63    1
    69    26    64    1
    70    27    28    1
    71    27    65    1
    72    28    66    1
    73    28    67    1
    74    29    68    1
    75    29    69    1
    76    29    70    1
    77    30    71    1
    78    30    72    1
    79    30    73    1
    80    31    74    1
    81    31    75    1
    82    31    76    1
    83    32    33    1
    84    32    34    2
    85    33    80    1
    86    33    81    1
    87    34    82    1
    88    34    83    1
