@<TRIPOS>MOLECULE
IMPHY010464
 81 87 0 0 0
SMALL
GASTEIGER

@<TRIPOS>ATOM
      1 O           4.7034    0.8604    0.0000 O.3     1  UNL1       -0.4605
      2 O           8.2044    0.9883    0.0000 O.3     1  UNL1       -0.3877
      3 O           7.2677   -1.7325    0.0000 O.3     1  UNL1       -0.3873
      4 O           4.0538   -0.9569    0.0000 O.3     1  UNL1       -0.3905
      5 O           3.9236   -0.3670    0.0000 O.2     1  UNL1       -0.2500
      6 O           6.0010   -3.6421    0.0000 O.3     1  UNL1       -0.3452
      7 O           6.0856    5.6229    0.0000 O.3     1  UNL1       -0.4571
      8 O           4.2690   -3.6421    0.0000 O.3     1  UNL1       -0.3431
      9 O           7.2724    6.9521    0.0000 O.2     1  UNL1       -0.2456
     10 O           6.0010   -5.6421    0.0000 O.3     1  UNL1       -0.3841
     11 O           4.2690   -6.6421    0.0000 O.3     1  UNL1       -0.3864
     12 O           2.5369   -5.6421    0.0000 O.3     1  UNL1       -0.3866
     13 C           6.2100    0.6201    0.0000 C.3     1  UNL1        0.0225
     14 C           7.1954    0.7899    0.0000 C.3     1  UNL1       -0.0041
     15 C           5.8643   -0.3183    0.0000 C.3     1  UNL1        0.1284
     16 C           7.5705    1.7617    0.0000 C.3     1  UNL1        0.0753
     17 C           6.9102    2.5673    0.0000 C.3     1  UNL1        0.0069
     18 C           5.5312    1.4102    0.0000 C.3     1  UNL1        0.1080
     19 C           6.5042   -1.0868    0.0000 C.3     1  UNL1        0.0869
     20 C           5.8837    2.3904    0.0000 C.3     1  UNL1       -0.0068
     21 C           7.8353    0.0214    0.0000 C.3     1  UNL1       -0.0446
     22 C           7.4713    3.4376    0.0000 C.3     1  UNL1       -0.0080
     23 C           8.5340    2.1410    0.0000 C.3     1  UNL1       -0.0226
     24 C           7.4896   -0.9170    0.0000 C.3     1  UNL1       -0.0224
     25 C           5.0536   -0.9723    0.0000 C.3     1  UNL1        0.0764
     26 C           8.4728    3.1746    0.0000 C.3     1  UNL1       -0.0432
     27 C           4.8914   -0.1155    0.0000 C.2     1  UNL1        0.3193
     28 C           6.6969   -2.1104    0.0000 C.3     1  UNL1        0.0037
     29 C           6.2763    3.3407    0.0000 C.3     1  UNL1       -0.0563
     30 C           5.1231   -2.1411    0.0000 C.3     1  UNL1        0.0009
     31 C           6.0010   -2.6421    0.0000 C.3     1  UNL1        0.0668
     32 C           7.1090    4.3697    0.0000 C.2     1  UNL1       -0.0222
     33 C           6.1420    4.6245    0.0000 C.3     1  UNL1        0.1147
     34 C           7.6502    5.2106    0.0000 C.2     1  UNL1        0.0252
     35 C           5.1350   -4.1421    0.0000 C.3     1  UNL1        0.1881
     36 C           7.0176    5.9851    0.0000 C.2     1  UNL1        0.3323
     37 C           5.1350   -5.1421    0.0000 C.3     1  UNL1        0.1341
     38 C           4.2690   -5.6421    0.0000 C.3     1  UNL1        0.1140
     39 C           3.4030   -4.1421    0.0000 C.3     1  UNL1        0.0873
     40 C           3.4030   -5.1421    0.0000 C.3     1  UNL1        0.1095
     41 C           2.5369   -3.6421    0.0000 C.3     1  UNL1       -0.0361
     42 H           6.5038    1.4177    0.0000 H       1  UNL1        0.0352
     43 H           7.8072    0.8905    0.0000 H       1  UNL1        0.0333
     44 H           4.8623    1.9346    0.0000 H       1  UNL1        0.0737
     45 H           5.8845    3.0104    0.0000 H       1  UNL1        0.0307
     46 H           5.2730    2.4973    0.0000 H       1  UNL1        0.0307
     47 H           8.3710   -0.2907    0.0000 H       1  UNL1        0.0270
     48 H           8.2356    0.4948    0.0000 H       1  UNL1        0.0270
     49 H           7.8840    3.9002    0.0000 H       1  UNL1        0.0353
     50 H           8.6992    1.5434    0.0000 H       1  UNL1        0.0293
     51 H           9.1456    2.2424    0.0000 H       1  UNL1        0.0293
     52 H           7.4872   -1.5370    0.0000 H       1  UNL1        0.0293
     53 H           8.0998   -1.0270    0.0000 H       1  UNL1        0.0293
     54 H           5.6207   -1.2230    0.0000 H       1  UNL1        0.0606
     55 H           9.0922    3.1460    0.0000 H       1  UNL1        0.0272
     56 H           8.5664    3.7875    0.0000 H       1  UNL1        0.0272
     57 H           6.9925   -2.6554    0.0000 H       1  UNL1        0.0318
     58 H           7.2811   -1.9028    0.0000 H       1  UNL1        0.0318
     59 H           6.7558    3.7338    0.0000 H       1  UNL1        0.0236
     60 H           5.8833    3.8203    0.0000 H       1  UNL1        0.0236
     61 H           5.7968    2.9477    0.0000 H       1  UNL1        0.0236
     62 H           4.5086   -2.0587    0.0000 H       1  UNL1        0.0315
     63 H           4.9246   -2.7285    0.0000 H       1  UNL1        0.0315
     64 H           6.5568   -2.9169    0.0000 H       1  UNL1        0.0599
     65 H           8.8162    1.0889    0.0000 H       1  UNL1        0.2102
     66 H           7.8511   -1.5227    0.0000 H       1  UNL1        0.2102
     67 H           3.7355   -1.4890    0.0000 H       1  UNL1        0.2098
     68 H           5.5228    4.6543    0.0000 H       1  UNL1        0.0746
     69 H           6.0476    4.0117    0.0000 H       1  UNL1        0.0746
     70 H           8.2692    5.2456    0.0000 H       1  UNL1        0.0689
     71 H           5.1350   -3.5221    0.0000 H       1  UNL1        0.0937
     72 H           5.1350   -5.7621    0.0000 H       1  UNL1        0.0671
     73 H           3.7320   -5.9521    0.0000 H       1  UNL1        0.0648
     74 H           3.4030   -3.5221    0.0000 H       1  UNL1        0.0621
     75 H           2.8660   -4.8321    0.0000 H       1  UNL1        0.0646
     76 H           6.0010   -6.2621    0.0000 H       1  UNL1        0.2101
     77 H           2.8469   -3.1052    0.0000 H       1  UNL1        0.0255
     78 H           2.0000   -3.3321    0.0000 H       1  UNL1        0.0255
     79 H           2.2269   -4.1790    0.0000 H       1  UNL1        0.0255
     80 H           3.7320   -6.9521    0.0000 H       1  UNL1        0.2100
     81 H           2.0000   -5.3321    0.0000 H       1  UNL1        0.2100
@<TRIPOS>BOND
     1     1    18    1
     2     1    27    1
     3    16     2    1
     4     2    65    1
     5    19     3    1
     6     3    66    1
     7    25     4    1
     8     4    67    1
     9     5    27    2
    10    31     6    1
    11    35     6    1
    12     7    33    1
    13     7    36    1
    14     8    35    1
    15     8    39    1
    16     9    36    2
    17    37    10    1
    18    10    76    1
    19    38    11    1
    20    11    80    1
    21    40    12    1
    22    12    81    1
    23    13    14    1
    24    13    15    1
    25    13    18    1
    26    13    42    1
    27    14    16    1
    28    14    21    1
    29    14    43    1
    30    15    19    1
    31    15    25    1
    32    15    27    1
    33    16    17    1
    34    16    23    1
    35    17    20    1
    36    17    22    1
    37    17    29    1
    38    18    20    1
    39    18    44    1
    40    19    24    1
    41    19    28    1
    42    20    45    1
    43    20    46    1
    44    21    24    1
    45    21    47    1
    46    21    48    1
    47    22    26    1
    48    22    32    1
    49    22    49    1
    50    23    26    1
    51    23    50    1
    52    23    51    1
    53    24    52    1
    54    24    53    1
    55    25    30    1
    56    25    54    1
    57    26    55    1
    58    26    56    1
    59    28    31    1
    60    28    57    1
    61    28    58    1
    62    29    59    1
    63    29    60    1
    64    29    61    1
    65    30    31    1
    66    30    62    1
    67    30    63    1
    68    31    64    1
    69    32    33    1
    70    32    34    2
    71    33    68    1
    72    33    69    1
    73    34    36    1
    74    34    70    1
    75    35    37    1
    76    35    71    1
    77    37    38    1
    78    37    72    1
    79    38    40    1
    80    38    73    1
    81    39    40    1
    82    39    41    1
    83    39    74    1
    84    40    75    1
    85    41    77    1
    86    41    78    1
    87    41    79    1
