@<TRIPOS>MOLECULE
IMPHY008980
 17 18 0 0 0
SMALL
GASTEIGER

@<TRIPOS>ATOM
      1 O           7.2763    0.9877    0.0000 O.3     1  UNL1       -0.4487
      2 O           3.7321    1.1830    0.0000 O.3     1  UNL1       -0.4521
      3 O           8.8600    0.1830    0.0000 O.2     1  UNL1       -0.2449
      4 O           2.8660   -0.3170    0.0000 O.2     1  UNL1       -0.2501
      5 C           5.4641   -0.8170    0.0000 C.3     1  UNL1        0.0220
      6 C           6.3301    0.6830    0.0000 C.3     1  UNL1        0.1550
      7 C           6.3301   -0.3170    0.0000 C.2     1  UNL1       -0.0025
      8 C           4.5981   -0.3170    0.0000 C.3     1  UNL1        0.0476
      9 C           5.4641    1.1830    0.0000 C.3     1  UNL1        0.0877
     10 C           4.5981    0.6830    0.0000 C.3     1  UNL1        0.1730
     11 C           5.9641   -1.6830    0.0000 C.3     1  UNL1        0.0043
     12 C           4.9641   -1.6830    0.0000 C.3     1  UNL1        0.0043
     13 C           6.3301    1.6830    0.0000 C.3     1  UNL1        0.0482
     14 C           7.2763   -0.6217    0.0000 C.2     1  UNL1        0.0767
     15 C           7.8600    0.1830    0.0000 C.2     1  UNL1        0.3410
     16 C           2.8660    0.6830    0.0000 C.2     1  UNL1        0.3174
     17 C           2.0000    1.1830    0.0000 C.3     1  UNL1        0.1212
@<TRIPOS>BOND
     1     1     6    1
     2     1    15    1
     3     2    16    1
     4     3    15    2
     5     4    16    2
     6     5     7    1
     7     5     8    1
     8     5    11    1
     9     5    12    1
    10     6     7    1
    11     6     9    1
    12     6    13    1
    13     7    14    2
    14     8    10    1
    15     9    10    1
    16    10     2    1
    17    14    15    1
    18    16    17    1
