@<TRIPOS>MOLECULE
IMPHY010378
 70 74 0 0 0
SMALL
GASTEIGER

@<TRIPOS>ATOM
      1 O           6.8671   -1.1226    0.0000 O.3     1  UNL1       -0.3313
      2 O           4.2690   -3.6226    0.0000 O.3     1  UNL1       -0.3431
      3 O           6.0010   -3.6226    0.0000 O.3     1  UNL1       -0.3461
      4 O           7.7331   -3.6226    0.0000 O.3     1  UNL1       -0.3865
      5 O           9.4651   -2.6226    0.0000 O.3     1  UNL1       -0.3864
      6 O           7.7331    0.3774    0.0000 O.3     1  UNL1       -0.4606
      7 O           9.4651   -0.6226    0.0000 O.3     1  UNL1       -0.3829
      8 O           6.0010   -5.6226    0.0000 O.3     1  UNL1       -0.3841
      9 O           4.2690   -6.6226    0.0000 O.3     1  UNL1       -0.3864
     10 O           2.5369   -5.6226    0.0000 O.3     1  UNL1       -0.3866
     11 O           5.9589    3.4293    0.0000 O.2     1  UNL1       -0.4544
     12 O           4.1934    0.4046    0.0000 O.3     1  UNL1       -0.5058
     13 O           3.3550    1.9394    0.0000 O.2     1  UNL1       -0.2869
     14 C           6.8671   -2.1226    0.0000 C.3     1  UNL1        0.1144
     15 C           7.7331   -2.6226    0.0000 C.3     1  UNL1        0.1120
     16 C           8.5991   -2.1226    0.0000 C.3     1  UNL1        0.1152
     17 C           8.5991   -1.1226    0.0000 C.3     1  UNL1        0.1454
     18 C           5.1350   -5.1226    0.0000 C.3     1  UNL1        0.1341
     19 C           5.1350   -4.1226    0.0000 C.3     1  UNL1        0.1879
     20 C           4.2690   -5.6226    0.0000 C.3     1  UNL1        0.1140
     21 C           3.4030   -5.1226    0.0000 C.3     1  UNL1        0.1095
     22 C           7.7331   -0.6226    0.0000 C.3     1  UNL1        0.2308
     23 C           3.4030   -4.1226    0.0000 C.3     1  UNL1        0.0873
     24 C           6.0010   -2.6226    0.0000 C.3     1  UNL1        0.0796
     25 C           2.5369   -3.6226    0.0000 C.3     1  UNL1       -0.0361
     26 C           6.8671    0.8774    0.0000 C.ar    1  UNL1        0.1310
     27 C           6.8630    1.9190    0.0000 C.ar    1  UNL1        0.0235
     28 C           5.9630    0.3600    0.0000 C.ar    1  UNL1        0.0226
     29 C           5.9550    2.4293    0.0000 C.ar    1  UNL1        0.1462
     30 C           5.0670    0.8912    0.0000 C.ar    1  UNL1        0.1347
     31 C           5.0871    1.9327    0.0000 C.ar    1  UNL1        0.1055
     32 C           4.2230    2.4360    0.0000 C.ar    1  UNL1        0.1966
     33 C           5.0948    3.9327    0.0000 C.ar    1  UNL1        0.1392
     34 C           4.2268    3.4360    0.0000 C.ar    1  UNL1        0.0288
     35 C           5.0986    4.9326    0.0000 C.ar    1  UNL1        0.0174
     36 C           5.9666    5.4293    0.0000 C.ar    1  UNL1       -0.0511
     37 C           4.2345    5.4360    0.0000 C.ar    1  UNL1       -0.0511
     38 C           5.9704    6.4293    0.0000 C.ar    1  UNL1       -0.0611
     39 C           4.2384    6.4360    0.0000 C.ar    1  UNL1       -0.0611
     40 C           5.1063    6.9326    0.0000 C.ar    1  UNL1       -0.0617
     41 H           6.3301   -1.8126    0.0000 H       1  UNL1        0.0647
     42 H           8.2700   -2.9326    0.0000 H       1  UNL1        0.0647
     43 H           9.1360   -1.8126    0.0000 H       1  UNL1        0.0648
     44 H           8.5991   -0.5026    0.0000 H       1  UNL1        0.0683
     45 H           5.1350   -5.7426    0.0000 H       1  UNL1        0.0671
     46 H           5.1350   -3.5026    0.0000 H       1  UNL1        0.0937
     47 H           3.7320   -5.9326    0.0000 H       1  UNL1        0.0648
     48 H           3.4030   -5.7426    0.0000 H       1  UNL1        0.0646
     49 H           7.1962   -0.3126    0.0000 H       1  UNL1        0.1084
     50 H           3.4030   -3.5026    0.0000 H       1  UNL1        0.0621
     51 H           5.7890   -2.0400    0.0000 H       1  UNL1        0.0587
     52 H           5.3905   -2.7303    0.0000 H       1  UNL1        0.0587
     53 H           2.8469   -3.0857    0.0000 H       1  UNL1        0.0255
     54 H           2.0000   -3.3126    0.0000 H       1  UNL1        0.0255
     55 H           2.2269   -4.1596    0.0000 H       1  UNL1        0.0255
     56 H           8.2700   -3.9326    0.0000 H       1  UNL1        0.2100
     57 H          10.0021   -2.3126    0.0000 H       1  UNL1        0.2100
     58 H           9.4651   -0.0026    0.0000 H       1  UNL1        0.2102
     59 H           6.5380   -5.3126    0.0000 H       1  UNL1        0.2101
     60 H           3.7320   -6.9326    0.0000 H       1  UNL1        0.2100
     61 H           2.0000   -5.3126    0.0000 H       1  UNL1        0.2100
     62 H           7.3976    2.2331    0.0000 H       1  UNL1        0.0691
     63 H           5.9582   -0.2600    0.0000 H       1  UNL1        0.0691
     64 H           3.6911    3.7481    0.0000 H       1  UNL1        0.0693
     65 H           4.1838   -0.2153    0.0000 H       1  UNL1        0.2922
     66 H           6.5023    5.1172    0.0000 H       1  UNL1        0.0625
     67 H           3.6964    5.1281    0.0000 H       1  UNL1        0.0625
     68 H           6.5085    6.7372    0.0000 H       1  UNL1        0.0618
     69 H           3.7026    6.7480    0.0000 H       1  UNL1        0.0618
     70 H           5.1087    7.5526    0.0000 H       1  UNL1        0.0618
@<TRIPOS>BOND
     1     1    14    1
     2     1    22    1
     3     2    19    1
     4     2    23    1
     5    19     3    1
     6     3    24    1
     7    15     4    1
     8     4    56    1
     9    16     5    1
    10     5    57    1
    11    22     6    1
    12     6    26    1
    13     7    17    1
    14     7    58    1
    15     8    18    1
    16     8    59    1
    17    20     9    1
    18     9    60    1
    19    21    10    1
    20    10    61    1
    21    11    29   ar
    22    11    33   ar
    23    12    30    1
    24    12    65    1
    25    13    32    2
    26    14    15    1
    27    14    24    1
    28    14    41    1
    29    15    16    1
    30    15    42    1
    31    16    17    1
    32    16    43    1
    33    17    22    1
    34    17    44    1
    35    18    19    1
    36    18    20    1
    37    18    45    1
    38    19    46    1
    39    20    21    1
    40    20    47    1
    41    21    23    1
    42    21    48    1
    43    22    49    1
    44    23    25    1
    45    23    50    1
    46    24    51    1
    47    24    52    1
    48    25    53    1
    49    25    54    1
    50    25    55    1
    51    26    27   ar
    52    26    28   ar
    53    27    29   ar
    54    27    62    1
    55    28    30   ar
    56    28    63    1
    57    29    31   ar
    58    30    31   ar
    59    31    32   ar
    60    32    34   ar
    61    33    34   ar
    62    33    35    1
    63    34    64    1
    64    35    36   ar
    65    35    37   ar
    66    36    38   ar
    67    36    66    1
    68    37    39   ar
    69    37    67    1
    70    38    40   ar
    71    38    68    1
    72    39    40   ar
    73    39    69    1
    74    40    70    1
