@<TRIPOS>MOLECULE
IMPHY005074
 50 53 0 0 0
SMALL
GASTEIGER

@<TRIPOS>ATOM
      1 O           7.9875    1.5249    0.0000 O.3     1  UNL1       -0.4810
      2 N           4.5124    0.6083    0.0000 N.ar    1  UNL1       -0.3536
      3 C           8.3170    0.5367    0.0000 C.3     1  UNL1        0.1266
      4 C           9.0627   -0.1295    0.0000 C.3     1  UNL1       -0.0060
      5 C           6.2962    0.9826    0.0000 C.ar    1  UNL1        0.0407
      6 C           6.9654    1.7257    0.0000 C.ar    1  UNL1        0.1337
      7 C           5.3181    1.1905    0.0000 C.ar    1  UNL1        0.0582
      8 C           7.6200   -0.2373    0.0000 C.2     1  UNL1       -0.0406
      9 C           5.0091    2.1415    0.0000 C.ar    1  UNL1        0.0084
     10 C           9.2668    0.8494    0.0000 C.3     1  UNL1       -0.0212
     11 C           6.6028   -0.0129    0.0000 C.2     1  UNL1       -0.0493
     12 C           6.6564    2.6768    0.0000 C.ar    1  UNL1       -0.0075
     13 C           8.8585   -1.1085    0.0000 C.3     1  UNL1       -0.0306
     14 C           4.0150    2.1390    0.0000 C.ar    1  UNL1        0.0074
     15 C           5.6782    2.8847    0.0000 C.ar    1  UNL1       -0.0456
     16 C           3.7086    1.1933    0.0000 C.ar    1  UNL1        0.0475
     17 C           7.3255    3.4199    0.0000 C.3     1  UNL1       -0.0362
     18 C           9.6043   -1.7747    0.0000 C.2     1  UNL1       -0.0851
     19 C           3.3334    2.9185    0.0000 C.ar    1  UNL1       -0.0520
     20 C           2.6994    0.9615    0.0000 C.ar    1  UNL1       -0.0378
     21 C           2.3191    2.7101    0.0000 C.ar    1  UNL1       -0.0611
     22 C           2.0000    1.7250    0.0000 C.ar    1  UNL1       -0.0598
     23 C           9.4001   -2.7537    0.0000 C.2     1  UNL1       -0.0796
     24 C          10.1458   -3.4199    0.0000 C.3     1  UNL1       -0.0440
     25 C           8.4503   -3.0663    0.0000 C.3     1  UNL1       -0.0440
     26 H           9.6384   -0.3596    0.0000 H       1  UNL1        0.0310
     27 H           9.3892    0.3975    0.0000 H       1  UNL1        0.0310
     28 H           7.8093   -0.8277    0.0000 H       1  UNL1        0.0611
     29 H           9.4607    0.2605    0.0000 H       1  UNL1        0.0271
     30 H           9.8557    1.0433    0.0000 H       1  UNL1        0.0271
     31 H           9.0730    1.4383    0.0000 H       1  UNL1        0.0271
     32 H           6.1826   -0.4688    0.0000 H       1  UNL1        0.0623
     33 H           8.2828   -0.8784    0.0000 H       1  UNL1        0.0309
     34 H           8.5320   -1.6355    0.0000 H       1  UNL1        0.0309
     35 H           5.4866    3.4743    0.0000 H       1  UNL1        0.0628
     36 H           4.5113   -0.0117    0.0000 H       1  UNL1        0.1659
     37 H           7.7862    3.0051    0.0000 H       1  UNL1        0.0279
     38 H           7.7403    3.8807    0.0000 H       1  UNL1        0.0279
     39 H           6.8647    3.8348    0.0000 H       1  UNL1        0.0279
     40 H          10.1932   -1.5809    0.0000 H       1  UNL1        0.0571
     41 H           3.5313    3.5060    0.0000 H       1  UNL1        0.0624
     42 H           2.5152    0.3695    0.0000 H       1  UNL1        0.0638
     43 H           1.9056    3.1721    0.0000 H       1  UNL1        0.0618
     44 H           1.3942    1.5933    0.0000 H       1  UNL1        0.0618
     45 H           9.7328   -3.8823    0.0000 H       1  UNL1        0.0274
     46 H          10.6082   -3.8330    0.0000 H       1  UNL1        0.0274
     47 H          10.5589   -2.9576    0.0000 H       1  UNL1        0.0274
     48 H           8.2564   -2.4774    0.0000 H       1  UNL1        0.0274
     49 H           7.8614   -3.2602    0.0000 H       1  UNL1        0.0274
     50 H           8.6441   -3.6552    0.0000 H       1  UNL1        0.0274
@<TRIPOS>BOND
     1     1     3    1
     2     1     6    1
     3     2     7   ar
     4     2    16   ar
     5     2    36    1
     6     3     4    1
     7     3     8    1
     8     3    10    1
     9     4    13    1
    10     4    26    1
    11     4    27    1
    12     5     6   ar
    13     5     7   ar
    14     5    11    1
    15     6    12   ar
    16     7     9   ar
    17     8    11    2
    18     8    28    1
    19     9    14   ar
    20     9    15   ar
    21    10    29    1
    22    10    30    1
    23    10    31    1
    24    11    32    1
    25    12    15   ar
    26    12    17    1
    27    13    18    1
    28    13    33    1
    29    13    34    1
    30    14    16   ar
    31    14    19   ar
    32    15    35    1
    33    16    20   ar
    34    17    37    1
    35    17    38    1
    36    17    39    1
    37    18    23    2
    38    18    40    1
    39    19    21   ar
    40    19    41    1
    41    20    22   ar
    42    20    42    1
    43    21    22   ar
    44    21    43    1
    45    22    44    1
    46    23    24    1
    47    23    25    1
    48    24    45    1
    49    24    46    1
    50    24    47    1
    51    25    48    1
    52    25    49    1
    53    25    50    1
