@<TRIPOS>MOLECULE
IMPHY000739
 38 36 0 0 0
SMALL
GASTEIGER

@<TRIPOS>ATOM
      1 NA          2.0000   -0.2500    0.0000 Na      1  UNL1        0.0000
      2 O           6.3301    1.2500    0.0000 O.3     2  UNL2        0.0000
      3 O           5.4641   -1.2500    0.0000 O.3     2  UNL2        0.0000
      4 O           7.1962   -1.2500    0.0000 O.3     2  UNL2        0.0000
      5 O           8.9282   -0.2500    0.0000 O.3     2  UNL2        0.0000
      6 O           4.5981    1.2500    0.0000 O.3     2  UNL2        0.0000
      7 O           2.8660    0.2500    0.0000 O.co2   2  UNL2       -0.5000
      8 O           3.7320   -1.2500    0.0000 O.co2   2  UNL2       -0.5000
      9 O           9.7942    1.2500    0.0000 O.2     2  UNL2        0.0000
     10 N          11.5263    0.2500    0.0000 N.3     2  UNL2        0.0000
     11 C           6.3301    0.2500    0.0000 C.3     2  UNL2        0.0000
     12 C           5.4641   -0.2500    0.0000 C.3     2  UNL2        0.0000
     13 C           7.1962   -0.2500    0.0000 C.3     2  UNL2        0.0000
     14 C           4.5981    0.2500    0.0000 C.3     2  UNL2        0.0000
     15 C           8.0622    0.2500    0.0000 C.3     2  UNL2        0.0000
     16 C           3.7320   -0.2500    0.0000 C.2     2  UNL2        0.0000
     17 C           9.7942    0.2500    0.0000 C.2     2  UNL2        0.0000
     18 C          10.6603   -0.2500    0.0000 C.3     2  UNL2        0.0000
     19 C          12.3923   -0.2500    0.0000 C.3     2  UNL2        0.0000
     20 C          11.5263    1.2500    0.0000 C.3     2  UNL2        0.0000
     21 H           6.8671    0.5600    0.0000 H       2  UNL2        0.0000
     22 H           6.0010   -0.5600    0.0000 H       2  UNL2        0.0000
     23 H           6.6592   -0.5600    0.0000 H       2  UNL2        0.0000
     24 H           5.1350    0.5600    0.0000 H       2  UNL2        0.0000
     25 H           8.4607    0.7249    0.0000 H       2  UNL2        0.0000
     26 H           7.6636    0.7249    0.0000 H       2  UNL2        0.0000
     27 H           6.8671    1.5600    0.0000 H       2  UNL2        0.0000
     28 H           4.9272   -1.5600    0.0000 H       2  UNL2        0.0000
     29 H           7.7331   -1.5600    0.0000 H       2  UNL2        0.0000
     30 H           4.0611    1.5600    0.0000 H       2  UNL2        0.0000
     31 H          10.2617   -0.7249    0.0000 H       2  UNL2        0.0000
     32 H          11.0588   -0.7249    0.0000 H       2  UNL2        0.0000
     33 H          12.1463    1.2500    0.0000 H       2  UNL2        0.0000
     34 H          11.5263    1.8700    0.0000 H       2  UNL2        0.0000
     35 H          10.9063    1.2500    0.0000 H       2  UNL2        0.0000
     36 H          12.0823   -0.7869    0.0000 H       2  UNL2        0.0000
     37 H          12.9292   -0.5600    0.0000 H       2  UNL2        0.0000
     38 H          12.7023    0.2869    0.0000 H       2  UNL2        0.0000
@<TRIPOS>UNITY_ATOM_ATTR
1 1
charge 1
7 1
charge -1
@<TRIPOS>BOND
     1    11     2    1
     2     2    27    1
     3    12     3    1
     4     3    28    1
     5    13     4    1
     6     4    29    1
     7     5    15    1
     8     5    17    1
     9    14     6    1
    10     6    30    1
    11     7    16   ar
    12     8    16   ar
    13     9    17    2
    14    10    18    1
    15    10    19    1
    16    10    20    1
    17    11    12    1
    18    11    13    1
    19    11    21    1
    20    12    14    1
    21    12    22    1
    22    13    15    1
    23    13    23    1
    24    14    16    1
    25    14    24    1
    26    15    25    1
    27    15    26    1
    28    17    18    1
    29    18    31    1
    30    18    32    1
    31    19    36    1
    32    19    37    1
    33    19    38    1
    34    20    33    1
    35    20    34    1
    36    20    35    1
