@<TRIPOS>MOLECULE
IMPHY006150
 22 22 0 0 0
SMALL
GASTEIGER

@<TRIPOS>ATOM
      1 O           2.0000   -2.5000    0.0000 O.2     1  UNL1       -0.2957
      2 N           2.8660    2.0000    0.0000 N.pl3   1  UNL1       -0.3360
      3 C           2.8660    1.0000    0.0000 C.ar    1  UNL1        0.0292
      4 C           2.0000    0.5000    0.0000 C.ar    1  UNL1       -0.0400
      5 C           3.7320    0.5000    0.0000 C.ar    1  UNL1       -0.0400
      6 C           3.7320    2.5000    0.0000 C.3     1  UNL1        0.0004
      7 C           2.0000    2.5000    0.0000 C.3     1  UNL1        0.0004
      8 C           2.8660   -1.0000    0.0000 C.ar    1  UNL1        0.0143
      9 C           2.0000   -0.5000    0.0000 C.ar    1  UNL1       -0.0498
     10 C           3.7320   -0.5000    0.0000 C.ar    1  UNL1       -0.0498
     11 C           2.8660   -2.0000    0.0000 C.2     1  UNL1        0.1502
     12 H           1.4631    0.8100    0.0000 H       1  UNL1        0.0636
     13 H           4.2690    0.8100    0.0000 H       1  UNL1        0.0636
     14 H           4.0420    1.9631    0.0000 H       1  UNL1        0.0428
     15 H           4.2690    2.8100    0.0000 H       1  UNL1        0.0428
     16 H           3.4220    3.0369    0.0000 H       1  UNL1        0.0428
     17 H           2.3100    3.0369    0.0000 H       1  UNL1        0.0428
     18 H           1.4631    2.8100    0.0000 H       1  UNL1        0.0428
     19 H           1.6900    1.9631    0.0000 H       1  UNL1        0.0428
     20 H           1.4631   -0.8100    0.0000 H       1  UNL1        0.0625
     21 H           4.2690   -0.8100    0.0000 H       1  UNL1        0.0625
     22 H           3.4030   -2.3100    0.0000 H       1  UNL1        0.1081
@<TRIPOS>BOND
     1     1    11    2
     2     2     3    1
     3     2     6    1
     4     2     7    1
     5     3     4   ar
     6     3     5   ar
     7     4     9   ar
     8     4    12    1
     9     5    10   ar
    10     5    13    1
    11     6    14    1
    12     6    15    1
    13     6    16    1
    14     7    17    1
    15     7    18    1
    16     7    19    1
    17     8     9   ar
    18     8    10   ar
    19     8    11    1
    20     9    20    1
    21    10    21    1
    22    11    22    1
