@<TRIPOS>MOLECULE
IMPHY015853
 17 16 0 0 0
SMALL
GASTEIGER

@<TRIPOS>ATOM
      1 O           5.4641    0.5600    0.0000 O.3     1  UNL1       -0.4668
      2 O           7.1962    0.5600    0.0000 O.2     1  UNL1       -0.2546
      3 C           3.7320    0.5600    0.0000 C.3     1  UNL1       -0.0188
      4 C           2.8660    0.0600    0.0000 C.3     1  UNL1       -0.0528
      5 C           4.5981    0.0600    0.0000 C.3     1  UNL1        0.0922
      6 C           2.0000    0.5600    0.0000 C.3     1  UNL1       -0.0652
      7 C           6.3301    0.0600    0.0000 C.2     1  UNL1        0.2943
      8 H           4.1306    1.0350    0.0000 H       1  UNL1        0.0298
      9 H           3.3335    1.0350    0.0000 H       1  UNL1        0.0298
     10 H           2.4675   -0.4149    0.0000 H       1  UNL1        0.0264
     11 H           3.2646   -0.4149    0.0000 H       1  UNL1        0.0264
     12 H           4.1996   -0.4149    0.0000 H       1  UNL1        0.0697
     13 H           4.9966   -0.4149    0.0000 H       1  UNL1        0.0697
     14 H           2.3100    1.0969    0.0000 H       1  UNL1        0.0230
     15 H           1.4631    0.8700    0.0000 H       1  UNL1        0.0230
     16 H           1.6900    0.0231    0.0000 H       1  UNL1        0.0230
     17 H           6.3301   -0.5600    0.0000 H       1  UNL1        0.1512
@<TRIPOS>BOND
     1     1     5    1
     2     1     7    1
     3     2     7    2
     4     3     4    1
     5     3     5    1
     6     3     8    1
     7     3     9    1
     8     4     6    1
     9     4    10    1
    10     4    11    1
    11     5    12    1
    12     5    13    1
    13     6    14    1
    14     6    15    1
    15     6    16    1
    16     7    17    1
