@<TRIPOS>MOLECULE
IMPHY014218
 27 28 0 0 0
SMALL
GASTEIGER

@<TRIPOS>ATOM
      1 O           2.2756    0.1800    0.0000 O.3     1  UNL1       -0.3691
      2 C           4.0501   -0.4748    0.0000 C.3     1  UNL1       -0.0127
      3 C           4.3089    0.4912    0.0000 C.3     1  UNL1        0.0877
      4 C           5.4490   -0.9836    0.0000 C.3     1  UNL1       -0.0432
      5 C           2.8290   -1.3404    0.0000 C.3     1  UNL1       -0.0138
      6 C           5.7078   -0.0176    0.0000 C.3     1  UNL1       -0.0196
      7 C           3.5723    1.4738    0.0000 C.2     1  UNL1       -0.0421
      8 C           2.0000   -0.7812    0.0000 C.3     1  UNL1        0.0519
      9 C           4.5677    1.4571    0.0000 C.3     1  UNL1       -0.0319
     10 C           2.8639   -2.3398    0.0000 C.3     1  UNL1       -0.0598
     11 C           3.0723    2.3398    0.0000 C.2     1  UNL1       -0.0965
     12 H           3.8301   -1.2958    0.0000 H       1  UNL1        0.0350
     13 H           5.2541   -1.5721    0.0000 H       1  UNL1        0.0272
     14 H           6.0430   -1.1614    0.0000 H       1  UNL1        0.0272
     15 H           2.2868   -1.6410    0.0000 H       1  UNL1        0.0326
     16 H           6.3018   -0.1954    0.0000 H       1  UNL1        0.0296
     17 H           5.9028    0.5709    0.0000 H       1  UNL1        0.0296
     18 H           1.4252   -0.5490    0.0000 H       1  UNL1        0.0563
     19 H           1.7089   -1.3287    0.0000 H       1  UNL1        0.0563
     20 H           5.1666    1.2966    0.0000 H       1  UNL1        0.0261
     21 H           4.7282    2.0560    0.0000 H       1  UNL1        0.0261
     22 H           3.9688    1.6176    0.0000 H       1  UNL1        0.0261
     23 H           2.2443   -2.3614    0.0000 H       1  UNL1        0.0233
     24 H           2.8856   -2.9594    0.0000 H       1  UNL1        0.0233
     25 H           3.4836   -2.3182    0.0000 H       1  UNL1        0.0233
     26 H           3.3823    2.8767    0.0000 H       1  UNL1        0.0535
     27 H           2.4523    2.3398    0.0000 H       1  UNL1        0.0535
@<TRIPOS>BOND
     1     1     3    1
     2     1     8    1
     3     2     4    1
     4     2     5    1
     5     2     7    1
     6     2    12    1
     7     3     6    1
     8     3     7    1
     9     3     9    1
    10     4     6    1
    11     4    13    1
    12     4    14    1
    13     5     8    1
    14     5    10    1
    15     5    15    1
    16     6    16    1
    17     6    17    1
    18     7    11    2
    19     8    18    1
    20     8    19    1
    21     9    20    1
    22     9    21    1
    23     9    22    1
    24    10    23    1
    25    10    24    1
    26    10    25    1
    27    11    26    1
    28    11    27    1
