@<TRIPOS>MOLECULE
IMPHY002091
 87 90 0 0 0
SMALL
GASTEIGER

@<TRIPOS>ATOM
      1 O           7.3885    2.0020    0.0000 O.3     1  UNL1       -0.3847
      2 O           7.3302    1.2949    0.0000 O.3     1  UNL1       -0.3883
      3 O           3.3927    2.9259    0.0000 O.3     1  UNL1       -0.3872
      4 O           4.0683    4.5569    0.0000 O.3     1  UNL1       -0.4544
      5 O           5.1640   -1.0426    0.0000 O.3     1  UNL1       -0.4569
      6 O           8.1112    5.3379    0.0000 O.2     1  UNL1       -0.2923
      7 O           5.2930    5.7816    0.0000 O.2     1  UNL1       -0.2511
      8 O           3.4477   -1.2752    0.0000 O.2     1  UNL1       -0.2508
      9 N           2.7910   -2.8780    0.0000 N.3     1  UNL1       -0.3009
     10 C           4.7754    2.0020    0.0000 C.3     1  UNL1        0.0069
     11 C           5.6993    1.6193    0.0000 C.3     1  UNL1        0.0199
     12 C           7.0058    2.9259    0.0000 C.3     1  UNL1        0.1081
     13 C           6.6231    2.0020    0.0000 C.3     1  UNL1        0.0922
     14 C           6.6231    3.8498    0.0000 C.3     1  UNL1        0.0219
     15 C           4.3927    2.9259    0.0000 C.3     1  UNL1        0.1020
     16 C           3.9393    1.3807    0.0000 C.3     1  UNL1       -0.0408
     17 C           5.6993    4.2325    0.0000 C.2     1  UNL1       -0.0124
     18 C           4.7754    3.8498    0.0000 C.3     1  UNL1        0.1515
     19 C           5.8511    0.5888    0.0000 C.2     1  UNL1       -0.0304
     20 C           7.6789    3.6676    0.0000 C.3     1  UNL1        0.0423
     21 C           4.0673    0.3470    0.0000 C.3     1  UNL1       -0.0111
     22 C           5.0297   -0.0516    0.0000 C.3     1  UNL1        0.1243
     23 C           3.8515    2.3847    0.0000 C.3     1  UNL1       -0.0564
     24 C           6.4410    4.9056    0.0000 C.2     1  UNL1       -0.0046
     25 C           6.9208    4.9606    0.0000 C.3     1  UNL1       -0.0532
     26 C           7.7340    4.1474    0.0000 C.3     1  UNL1       -0.0532
     27 C           7.4041    4.6308    0.0000 C.2     1  UNL1        0.1619
     28 C           6.7794    0.2169    0.0000 C.2     1  UNL1       -0.0956
     29 C           6.2135    5.8794    0.0000 C.3     1  UNL1       -0.0363
     30 C           4.3271    5.5228    0.0000 C.2     1  UNL1        0.3046
     31 C           4.3730   -1.6544    0.0000 C.2     1  UNL1        0.3095
     32 C           4.5074   -2.6453    0.0000 C.3     1  UNL1        0.0646
     33 C           3.6200    6.2299    0.0000 C.3     1  UNL1        0.0333
     34 C           3.7164   -3.2571    0.0000 C.3     1  UNL1        0.0451
     35 C           3.8507   -4.2480    0.0000 C.ar    1  UNL1       -0.0298
     36 C           2.0000   -3.4898    0.0000 C.3     1  UNL1       -0.0125
     37 C           2.6566   -1.8871    0.0000 C.3     1  UNL1       -0.0125
     38 C           3.0597   -4.8599    0.0000 C.ar    1  UNL1       -0.0571
     39 C           4.7760   -4.6272    0.0000 C.ar    1  UNL1       -0.0571
     40 C           3.1940   -5.8508    0.0000 C.ar    1  UNL1       -0.0615
     41 C           4.9104   -5.6181    0.0000 C.ar    1  UNL1       -0.0615
     42 C           4.1194   -6.2299    0.0000 C.ar    1  UNL1       -0.0617
     43 H           6.2386    1.3135    0.0000 H       1  UNL1        0.0379
     44 H           6.5022    1.3939    0.0000 H       1  UNL1        0.0628
     45 H           4.0482    3.4414    0.0000 H       1  UNL1        0.0639
     46 H           3.6601    1.9343    0.0000 H       1  UNL1        0.0273
     47 H           3.3461    1.2004    0.0000 H       1  UNL1        0.0273
     48 H           4.8963    4.4579    0.0000 H       1  UNL1        0.0809
     49 H           8.0534    3.1735    0.0000 H       1  UNL1        0.0374
     50 H           8.2336    3.9446    0.0000 H       1  UNL1        0.0374
     51 H           3.4480    0.3772    0.0000 H       1  UNL1        0.0304
     52 H           3.9316   -0.2580    0.0000 H       1  UNL1        0.0304
     53 H           5.6038   -0.2856    0.0000 H       1  UNL1        0.0782
     54 H           4.0888    2.9575    0.0000 H       1  UNL1        0.0236
     55 H           3.2787    2.6220    0.0000 H       1  UNL1        0.0236
     56 H           3.6142    1.8119    0.0000 H       1  UNL1        0.0236
     57 H           7.5197    4.8001    0.0000 H       1  UNL1        0.0239
     58 H           7.0812    5.5595    0.0000 H       1  UNL1        0.0239
     59 H           6.3219    5.1211    0.0000 H       1  UNL1        0.0239
     60 H           7.8944    3.5486    0.0000 H       1  UNL1        0.0239
     61 H           8.3328    4.3079    0.0000 H       1  UNL1        0.0239
     62 H           7.5735    4.7463    0.0000 H       1  UNL1        0.0239
     63 H           8.0032    1.9211    0.0000 H       1  UNL1        0.2103
     64 H           7.1698    0.6960    0.0000 H       1  UNL1        0.2099
     65 H           3.0827    3.4628    0.0000 H       1  UNL1        0.2100
     66 H           6.8674   -0.3969    0.0000 H       1  UNL1        0.0536
     67 H           7.2668    0.6000    0.0000 H       1  UNL1        0.0536
     68 H           6.8172    6.0204    0.0000 H       1  UNL1        0.0279
     69 H           6.0724    6.4831    0.0000 H       1  UNL1        0.0279
     70 H           5.6097    5.7383    0.0000 H       1  UNL1        0.0279
     71 H           4.7958   -3.1941    0.0000 H       1  UNL1        0.0396
     72 H           5.0979   -2.4566    0.0000 H       1  UNL1        0.0396
     73 H           4.0584    6.6683    0.0000 H       1  UNL1        0.0342
     74 H           3.1816    6.6683    0.0000 H       1  UNL1        0.0342
     75 H           3.1816    5.7915    0.0000 H       1  UNL1        0.0342
     76 H           3.2259   -3.6364    0.0000 H       1  UNL1        0.0517
     77 H           1.6207   -2.9994    0.0000 H       1  UNL1        0.0391
     78 H           1.5096   -3.8691    0.0000 H       1  UNL1        0.0391
     79 H           2.3793   -3.9802    0.0000 H       1  UNL1        0.0391
     80 H           3.2710   -1.8038    0.0000 H       1  UNL1        0.0391
     81 H           2.5734   -1.2727    0.0000 H       1  UNL1        0.0391
     82 H           2.0423   -1.9704    0.0000 H       1  UNL1        0.0391
     83 H           2.4860   -4.6248    0.0000 H       1  UNL1        0.0621
     84 H           5.2665   -4.2478    0.0000 H       1  UNL1        0.0621
     85 H           2.7036   -6.2301    0.0000 H       1  UNL1        0.0618
     86 H           5.4841   -5.8532    0.0000 H       1  UNL1        0.0618
     87 H           4.2027   -6.8443    0.0000 H       1  UNL1        0.0618
@<TRIPOS>BOND
     1     1    12    1
     2     1    63    1
     3     2    13    1
     4     2    64    1
     5     3    15    1
     6     3    65    1
     7     4    18    1
     8     4    30    1
     9     5    22    1
    10     5    31    1
    11     6    27    2
    12     7    30    2
    13     8    31    2
    14     9    34    1
    15     9    36    1
    16     9    37    1
    17    10    11    1
    18    10    15    1
    19    10    16    1
    20    10    23    1
    21    11    13    1
    22    11    19    1
    23    11    43    1
    24    12    13    1
    25    12    14    1
    26    12    20    1
    27    13    44    1
    28    14    17    1
    29    14    25    1
    30    14    26    1
    31    15    18    1
    32    15    45    1
    33    16    21    1
    34    16    46    1
    35    16    47    1
    36    17    18    1
    37    17    24    2
    38    18    48    1
    39    19    22    1
    40    19    28    2
    41    20    27    1
    42    20    49    1
    43    20    50    1
    44    21    22    1
    45    21    51    1
    46    21    52    1
    47    22    53    1
    48    23    54    1
    49    23    55    1
    50    23    56    1
    51    24    27    1
    52    24    29    1
    53    25    57    1
    54    25    58    1
    55    25    59    1
    56    26    60    1
    57    26    61    1
    58    26    62    1
    59    28    66    1
    60    28    67    1
    61    29    68    1
    62    29    69    1
    63    29    70    1
    64    30    33    1
    65    31    32    1
    66    32    34    1
    67    32    71    1
    68    32    72    1
    69    33    73    1
    70    33    74    1
    71    33    75    1
    72    34    35    1
    73    34    76    1
    74    35    38   ar
    75    35    39   ar
    76    36    77    1
    77    36    78    1
    78    36    79    1
    79    37    80    1
    80    37    81    1
    81    37    82    1
    82    38    40   ar
    83    38    83    1
    84    39    41   ar
    85    39    84    1
    86    40    42   ar
    87    40    85    1
    88    41    42   ar
    89    41    86    1
    90    42    87    1
