@<TRIPOS>MOLECULE
IMPHY006036
 25 27 0 0 0
SMALL
GASTEIGER

@<TRIPOS>ATOM
      1 O           4.6660   -1.6377    0.0000 O.3     1  UNL1       -0.4553
      2 O           4.6660    1.3623    0.0000 O.3     1  UNL1       -0.3823
      3 C           4.6660    0.3623    0.0000 C.3     1  UNL1        0.1120
      4 C           5.5321   -0.1377    0.0000 C.ar    1  UNL1        0.0276
      5 C           3.8000   -0.1377    0.0000 C.ar    1  UNL1        0.0276
      6 C           5.5321   -1.1377    0.0000 C.ar    1  UNL1        0.1344
      7 C           3.8000   -1.1377    0.0000 C.ar    1  UNL1        0.1344
      8 C           6.4260    0.3970    0.0000 C.ar    1  UNL1       -0.0523
      9 C           2.9061    0.3970    0.0000 C.ar    1  UNL1       -0.0523
     10 C           6.4260   -1.6723    0.0000 C.ar    1  UNL1       -0.0190
     11 C           2.9061   -1.6723    0.0000 C.ar    1  UNL1       -0.0190
     12 C           2.0000   -0.1169    0.0000 C.ar    1  UNL1       -0.0612
     13 C           7.3321   -0.1169    0.0000 C.ar    1  UNL1       -0.0612
     14 C           7.3321   -1.1585    0.0000 C.ar    1  UNL1       -0.0583
     15 C           2.0000   -1.1585    0.0000 C.ar    1  UNL1       -0.0583
     16 H           5.2030    0.6723    0.0000 H       1  UNL1        0.0697
     17 H           6.4188    1.0170    0.0000 H       1  UNL1        0.0622
     18 H           2.9132    1.0170    0.0000 H       1  UNL1        0.0622
     19 H           6.4188   -2.2923    0.0000 H       1  UNL1        0.0654
     20 H           2.9132   -2.2923    0.0000 H       1  UNL1        0.0654
     21 H           7.8678    0.1952    0.0000 H       1  UNL1        0.0618
     22 H           1.4643    0.1952    0.0000 H       1  UNL1        0.0618
     23 H           7.8678   -1.4706    0.0000 H       1  UNL1        0.0619
     24 H           1.4643   -1.4706    0.0000 H       1  UNL1        0.0619
     25 H           5.2030    1.6723    0.0000 H       1  UNL1        0.2107
@<TRIPOS>BOND
     1     1     6    1
     2     1     7    1
     3     2     3    1
     4     2    25    1
     5     3     4    1
     6     3     5    1
     7     3    16    1
     8     4     6   ar
     9     4     8   ar
    10     5     7   ar
    11     5     9   ar
    12     6    10   ar
    13     7    11   ar
    14     8    13   ar
    15     8    17    1
    16     9    12   ar
    17     9    18    1
    18    10    14   ar
    19    10    19    1
    20    11    15   ar
    21    11    20    1
    22    12    15   ar
    23    12    22    1
    24    13    14   ar
    25    13    21    1
    26    14    23    1
    27    15    24    1
