@<TRIPOS>MOLECULE
IMPHY014078
 41 44 0 0 0
SMALL
GASTEIGER

@<TRIPOS>ATOM
      1 CL          4.0725    0.0000    0.0000 Cl      1  UNL1        0.0000
      2 O           8.4950    4.1398    0.0000 O.3     2  UNL2       -0.4526
      3 O           7.0431    3.3016    0.0000 O.3     2  UNL2       -0.4526
      4 O           2.3576    8.9608    0.0000 O.3     2  UNL2       -0.4907
      5 O           0.5381    7.9290    0.0000 O.3     2  UNL2       -0.5033
      6 N           5.0772    7.3832    0.0000 N.ar    2  UNL2       -0.1961
      7 C           5.9432    7.8832    0.0000 C.3     2  UNL2        0.1550
      8 C           6.8092    7.3832    0.0000 C.3     2  UNL2        0.0330
      9 C           5.0772    6.3832    0.0000 C.ar    2  UNL2        0.2159
     10 C           6.8092    6.3832    0.0000 C.ar    2  UNL2       -0.0243
     11 C           5.9432    5.8832    0.0000 C.ar    2  UNL2        0.0533
     12 C           4.1832    7.9178    0.0000 C.ar    2  UNL2        0.1831
     13 C           4.1832    5.8485    0.0000 C.ar    2  UNL2        0.0183
     14 C           3.2772    7.4040    0.0000 C.ar    2  UNL2        0.0909
     15 C           3.2772    6.3623    0.0000 C.ar    2  UNL2       -0.0022
     16 C           7.7192    5.8763    0.0000 C.ar    2  UNL2       -0.0120
     17 C           5.9271    4.8416    0.0000 C.ar    2  UNL2       -0.0025
     18 C           7.7272    4.8347    0.0000 C.ar    2  UNL2        0.1665
     19 C           6.8252    4.3139    0.0000 C.ar    2  UNL2        0.1670
     20 C           2.3460    7.9609    0.0000 C.ar    2  UNL2        0.1746
     21 C           2.3460    5.8054    0.0000 C.ar    2  UNL2       -0.0499
     22 C           8.0730    3.1943    0.0000 C.3     2  UNL2        0.2332
     23 C           1.4022    7.4256    0.0000 C.ar    2  UNL2        0.1593
     24 C           1.4022    6.3406    0.0000 C.ar    2  UNL2       -0.0159
     25 C           1.4974    9.4708    0.0000 C.3     2  UNL2        0.0790
     26 H           6.3417    8.3581    0.0000 H       2  UNL2        0.1034
     27 H           5.5447    8.3581    0.0000 H       2  UNL2        0.1034
     28 H           7.4198    7.2755    0.0000 H       2  UNL2        0.0375
     29 H           7.0213    7.9658    0.0000 H       2  UNL2        0.0375
     30 H           4.1904    8.5378    0.0000 H       2  UNL2        0.1384
     31 H           4.1904    5.2285    0.0000 H       2  UNL2        0.0690
     32 H           8.2525    6.1925    0.0000 H       2  UNL2        0.0658
     33 H           5.3867    4.5379    0.0000 H       2  UNL2        0.0663
     34 H           2.3532    5.1854    0.0000 H       2  UNL2        0.0625
     35 H           7.9442    2.5878    0.0000 H       2  UNL2        0.1166
     36 H           8.6626    3.0025    0.0000 H       2  UNL2        0.1166
     37 H           0.8665    6.0286    0.0000 H       2  UNL2        0.0655
     38 H           0.0000    7.6210    0.0000 H       2  UNL2        0.2923
     39 H           1.8136   10.0041    0.0000 H       2  UNL2        0.0660
     40 H           0.9641    9.7870    0.0000 H       2  UNL2        0.0660
     41 H           1.1812    8.9375    0.0000 H       2  UNL2        0.0660
@<TRIPOS>UNITY_ATOM_ATTR
1 1
charge -1
6 1
charge 1
@<TRIPOS>BOND
     1     2    18    1
     2     2    22    1
     3     3    19    1
     4     3    22    1
     5     4    20    1
     6     4    25    1
     7     5    23    1
     8     5    38    1
     9     6     7    1
    10     6     9   ar
    11     6    12   ar
    12     7     8    1
    13     7    26    1
    14     7    27    1
    15     8    10    1
    16     8    28    1
    17     8    29    1
    18     9    11    1
    19     9    13   ar
    20    10    11   ar
    21    10    16   ar
    22    11    17   ar
    23    12    14   ar
    24    12    30    1
    25    13    15   ar
    26    13    31    1
    27    14    15   ar
    28    14    20   ar
    29    15    21   ar
    30    16    18   ar
    31    16    32    1
    32    17    19   ar
    33    17    33    1
    34    18    19   ar
    35    20    23   ar
    36    21    24   ar
    37    21    34    1
    38    22    35    1
    39    22    36    1
    40    23    24   ar
    41    24    37    1
    42    25    39    1
    43    25    40    1
    44    25    41    1
