@<TRIPOS>MOLECULE
IMPHY007709
 27 27 0 0 0
SMALL
GASTEIGER

@<TRIPOS>ATOM
      1 O           2.8660   -2.7500    0.0000 O.3     1  UNL1       -0.4951
      2 O           2.8660    3.2500    0.0000 O.2     1  UNL1       -0.2977
      3 C           2.8660    1.2500    0.0000 C.3     1  UNL1       -0.0210
      4 C           2.8660    0.2500    0.0000 C.ar    1  UNL1       -0.0467
      5 C           3.7320    1.7500    0.0000 C.3     1  UNL1        0.0095
      6 C           2.0000   -0.2500    0.0000 C.ar    1  UNL1       -0.0551
      7 C           3.7320   -0.2500    0.0000 C.ar    1  UNL1       -0.0551
      8 C           3.7320    2.7500    0.0000 C.2     1  UNL1        0.1306
      9 C           2.0000   -1.2500    0.0000 C.ar    1  UNL1       -0.0197
     10 C           3.7320   -1.2500    0.0000 C.ar    1  UNL1       -0.0197
     11 C           2.8660   -1.7500    0.0000 C.ar    1  UNL1        0.1201
     12 C           4.5981    3.2500    0.0000 C.3     1  UNL1       -0.0061
     13 C           2.0000   -3.2500    0.0000 C.3     1  UNL1        0.0788
     14 H           2.6540    1.8326    0.0000 H       1  UNL1        0.0317
     15 H           2.2554    1.1423    0.0000 H       1  UNL1        0.0317
     16 H           3.9441    1.1674    0.0000 H       1  UNL1        0.0345
     17 H           4.3426    1.8577    0.0000 H       1  UNL1        0.0345
     18 H           1.4631    0.0600    0.0000 H       1  UNL1        0.0621
     19 H           4.2690    0.0600    0.0000 H       1  UNL1        0.0621
     20 H           1.4631   -1.5600    0.0000 H       1  UNL1        0.0654
     21 H           4.2690   -1.5600    0.0000 H       1  UNL1        0.0654
     22 H           4.9081    2.7131    0.0000 H       1  UNL1        0.0306
     23 H           5.1350    3.5600    0.0000 H       1  UNL1        0.0306
     24 H           4.2881    3.7869    0.0000 H       1  UNL1        0.0306
     25 H           1.6900   -2.7131    0.0000 H       1  UNL1        0.0660
     26 H           1.4631   -3.5600    0.0000 H       1  UNL1        0.0660
     27 H           2.3100   -3.7869    0.0000 H       1  UNL1        0.0660
@<TRIPOS>BOND
     1     1    11    1
     2     1    13    1
     3     2     8    2
     4     3     4    1
     5     3     5    1
     6     3    14    1
     7     3    15    1
     8     4     6   ar
     9     4     7   ar
    10     5     8    1
    11     5    16    1
    12     5    17    1
    13     6     9   ar
    14     6    18    1
    15     7    10   ar
    16     7    19    1
    17     8    12    1
    18     9    11   ar
    19     9    20    1
    20    10    11   ar
    21    10    21    1
    22    12    22    1
    23    12    23    1
    24    12    24    1
    25    13    25    1
    26    13    26    1
    27    13    27    1
