@<TRIPOS>MOLECULE
IMPHY015085
 41 40 0 0 0
SMALL
GASTEIGER

@<TRIPOS>ATOM
      1 O           2.0000    0.5600    0.0000 O.2     1  UNL1       -0.2963
      2 C           9.7942    0.0600    0.0000 C.3     1  UNL1       -0.0531
      3 C           8.9282    0.5600    0.0000 C.3     1  UNL1       -0.0531
      4 C          10.6603    0.5600    0.0000 C.3     1  UNL1       -0.0531
      5 C           8.0622    0.0600    0.0000 C.3     1  UNL1       -0.0530
      6 C          11.5263    0.0600    0.0000 C.3     1  UNL1       -0.0531
      7 C           7.1962    0.5600    0.0000 C.3     1  UNL1       -0.0528
      8 C          12.3923    0.5600    0.0000 C.3     1  UNL1       -0.0533
      9 C           6.3301    0.0600    0.0000 C.3     1  UNL1       -0.0496
     10 C          13.2583    0.0600    0.0000 C.3     1  UNL1       -0.0559
     11 C           5.4641    0.5600    0.0000 C.3     1  UNL1       -0.0344
     12 C          14.1244    0.5600    0.0000 C.3     1  UNL1       -0.0653
     13 C           4.5981    0.0600    0.0000 C.2     1  UNL1       -0.0810
     14 C           3.7320    0.5600    0.0000 C.2     1  UNL1       -0.0264
     15 C           2.8660    0.0600    0.0000 C.2     1  UNL1        0.1428
     16 H           9.3957   -0.4149    0.0000 H       1  UNL1        0.0265
     17 H          10.1928   -0.4149    0.0000 H       1  UNL1        0.0265
     18 H           9.3267    1.0350    0.0000 H       1  UNL1        0.0265
     19 H           8.5297    1.0350    0.0000 H       1  UNL1        0.0265
     20 H          11.0588    1.0350    0.0000 H       1  UNL1        0.0265
     21 H          10.2617    1.0350    0.0000 H       1  UNL1        0.0265
     22 H           7.6636   -0.4149    0.0000 H       1  UNL1        0.0265
     23 H           8.4607   -0.4149    0.0000 H       1  UNL1        0.0265
     24 H          11.1278   -0.4149    0.0000 H       1  UNL1        0.0265
     25 H          11.9248   -0.4149    0.0000 H       1  UNL1        0.0265
     26 H           7.5947    1.0350    0.0000 H       1  UNL1        0.0265
     27 H           6.7976    1.0350    0.0000 H       1  UNL1        0.0265
     28 H          12.7908    1.0350    0.0000 H       1  UNL1        0.0265
     29 H          11.9938    1.0350    0.0000 H       1  UNL1        0.0265
     30 H           5.9316   -0.4149    0.0000 H       1  UNL1        0.0268
     31 H           6.7287   -0.4149    0.0000 H       1  UNL1        0.0268
     32 H          12.8598   -0.4149    0.0000 H       1  UNL1        0.0263
     33 H          13.6569   -0.4149    0.0000 H       1  UNL1        0.0263
     34 H           5.8626    1.0350    0.0000 H       1  UNL1        0.0307
     35 H           5.0656    1.0350    0.0000 H       1  UNL1        0.0307
     36 H          14.4344    0.0231    0.0000 H       1  UNL1        0.0230
     37 H          14.6613    0.8700    0.0000 H       1  UNL1        0.0230
     38 H          13.8144    1.0969    0.0000 H       1  UNL1        0.0230
     39 H           4.5981   -0.5600    0.0000 H       1  UNL1        0.0573
     40 H           3.7320    1.1800    0.0000 H       1  UNL1        0.0646
     41 H           2.8660   -0.5600    0.0000 H       1  UNL1        0.1075
@<TRIPOS>BOND
     1     1    15    2
     2     2     3    1
     3     2     4    1
     4     2    16    1
     5     2    17    1
     6     3     5    1
     7     3    18    1
     8     3    19    1
     9     4     6    1
    10     4    20    1
    11     4    21    1
    12     5     7    1
    13     5    22    1
    14     5    23    1
    15     6     8    1
    16     6    24    1
    17     6    25    1
    18     7     9    1
    19     7    26    1
    20     7    27    1
    21     8    10    1
    22     8    28    1
    23     8    29    1
    24     9    11    1
    25     9    30    1
    26     9    31    1
    27    10    12    1
    28    10    32    1
    29    10    33    1
    30    11    13    1
    31    11    34    1
    32    11    35    1
    33    12    36    1
    34    12    37    1
    35    12    38    1
    36    13    14    2
    37    13    39    1
    38    14    15    1
    39    14    40    1
    40    15    41    1
