@<TRIPOS>MOLECULE
IMPHY017217
 27 28 0 0 0
SMALL
GASTEIGER

@<TRIPOS>ATOM
      1 N           4.6783   -0.4271    0.0000 N.pl3   1  UNL1       -0.3271
      2 C           5.2619    0.3776    0.0000 C.3     1  UNL1        0.0330
      3 C           4.6783    1.1824    0.0000 C.3     1  UNL1       -0.0049
      4 C           3.7320    0.8776    0.0000 C.ar    1  UNL1       -0.0243
      5 C           3.7320   -0.1224    0.0000 C.ar    1  UNL1        0.0332
      6 C           6.0709   -0.2102    0.0000 C.3     1  UNL1       -0.0436
      7 C           6.0709    0.9654    0.0000 C.3     1  UNL1       -0.0436
      8 C           4.9889   -1.3776    0.0000 C.3     1  UNL1        0.0012
      9 C           2.8660    1.3776    0.0000 C.ar    1  UNL1       -0.0568
     10 C           2.8660   -0.6224    0.0000 C.ar    1  UNL1       -0.0404
     11 C           2.0000    0.8776    0.0000 C.ar    1  UNL1       -0.0614
     12 C           2.0000   -0.1224    0.0000 C.ar    1  UNL1       -0.0600
     13 H           5.2156    1.4916    0.0000 H       1  UNL1        0.0334
     14 H           4.4272    1.7493    0.0000 H       1  UNL1        0.0334
     15 H           5.7065   -0.7117    0.0000 H       1  UNL1        0.0250
     16 H           6.5725   -0.5746    0.0000 H       1  UNL1        0.0250
     17 H           6.4353    0.2914    0.0000 H       1  UNL1        0.0250
     18 H           6.4353    0.4638    0.0000 H       1  UNL1        0.0250
     19 H           6.5725    1.3298    0.0000 H       1  UNL1        0.0250
     20 H           5.7065    1.4670    0.0000 H       1  UNL1        0.0250
     21 H           4.3996   -1.5702    0.0000 H       1  UNL1        0.0428
     22 H           5.1815   -1.9670    0.0000 H       1  UNL1        0.0428
     23 H           5.5783   -1.1850    0.0000 H       1  UNL1        0.0428
     24 H           2.8660    1.9976    0.0000 H       1  UNL1        0.0621
     25 H           2.8660   -1.2424    0.0000 H       1  UNL1        0.0636
     26 H           1.4631    1.1876    0.0000 H       1  UNL1        0.0618
     27 H           1.4631   -0.4324    0.0000 H       1  UNL1        0.0618
@<TRIPOS>BOND
     1     1     2    1
     2     1     5    1
     3     1     8    1
     4     2     3    1
     5     2     6    1
     6     2     7    1
     7     3     4    1
     8     3    13    1
     9     3    14    1
    10     4     5   ar
    11     4     9   ar
    12     5    10   ar
    13     6    15    1
    14     6    16    1
    15     6    17    1
    16     7    18    1
    17     7    19    1
    18     7    20    1
    19     8    21    1
    20     8    22    1
    21     8    23    1
    22     9    11   ar
    23     9    24    1
    24    10    12   ar
    25    10    25    1
    26    11    12   ar
    27    11    26    1
    28    12    27    1
