@<TRIPOS>MOLECULE
IMPHY008752
 39 41 0 0 0
SMALL
GASTEIGER

@<TRIPOS>ATOM
      1 O           7.8805   -1.0000    0.0000 O.3     1  UNL1       -0.4575
      2 O           2.5381   -1.2194    0.0000 O.3     1  UNL1       -0.3889
      3 O           2.5381    0.8289    0.0000 O.3     1  UNL1       -0.3849
      4 O           9.4641   -0.1952    0.0000 O.2     1  UNL1       -0.2453
      5 C           5.2022   -0.6952    0.0000 C.3     1  UNL1       -0.0197
      6 C           5.2022    0.3048    0.0000 C.3     1  UNL1       -0.0114
      7 C           6.0682   -1.1952    0.0000 C.3     1  UNL1       -0.0090
      8 C           6.0682    0.8048    0.0000 C.3     1  UNL1       -0.0355
      9 C           6.9343    0.3048    0.0000 C.3     1  UNL1        0.0280
     10 C           6.9343   -0.6952    0.0000 C.3     1  UNL1        0.1109
     11 C           4.3083   -1.2299    0.0000 C.3     1  UNL1       -0.0180
     12 C           4.3083    0.8394    0.0000 C.2     1  UNL1       -0.0425
     13 C           3.4022   -0.7160    0.0000 C.3     1  UNL1        0.0854
     14 C           5.2022   -1.6952    0.0000 C.3     1  UNL1       -0.0588
     15 C           3.4022    0.3256    0.0000 C.3     1  UNL1        0.1021
     16 C           7.8805    0.6095    0.0000 C.2     1  UNL1        0.0361
     17 C           8.4641   -0.1952    0.0000 C.2     1  UNL1        0.3353
     18 C           4.3198    1.8394    0.0000 C.2     1  UNL1       -0.0967
     19 C           8.1912    1.5600    0.0000 C.2     1  UNL1       -0.0883
     20 H           5.2088    1.1548    0.0000 H       1  UNL1        0.0352
     21 H           5.6697   -1.6702    0.0000 H       1  UNL1        0.0306
     22 H           6.4668   -1.6702    0.0000 H       1  UNL1        0.0306
     23 H           6.4668    1.2797    0.0000 H       1  UNL1        0.0278
     24 H           5.6697    1.2797    0.0000 H       1  UNL1        0.0278
     25 H           7.0242    1.1500    0.0000 H       1  UNL1        0.0387
     26 H           7.0242   -1.5405    0.0000 H       1  UNL1        0.0740
     27 H           3.9147   -1.7089    0.0000 H       1  UNL1        0.0296
     28 H           4.7129   -1.6997    0.0000 H       1  UNL1        0.0296
     29 H           2.8647   -0.4071    0.0000 H       1  UNL1        0.0622
     30 H           4.5822   -1.6952    0.0000 H       1  UNL1        0.0235
     31 H           5.2022   -2.3152    0.0000 H       1  UNL1        0.0235
     32 H           5.8222   -1.6952    0.0000 H       1  UNL1        0.0235
     33 H           2.8647    0.0166    0.0000 H       1  UNL1        0.0666
     34 H           4.8603    2.1431    0.0000 H       1  UNL1        0.0535
     35 H           3.7865    2.1556    0.0000 H       1  UNL1        0.0535
     36 H           2.5405   -1.8394    0.0000 H       1  UNL1        0.2099
     37 H           2.0000    0.5210    0.0000 H       1  UNL1        0.2103
     38 H           8.7978    1.6879    0.0000 H       1  UNL1        0.0540
     39 H           7.7771    2.0215    0.0000 H       1  UNL1        0.0540
@<TRIPOS>BOND
     1     1    10    1
     2     1    17    1
     3    13     2    1
     4     2    36    1
     5    15     3    1
     6     3    37    1
     7     4    17    2
     8     5     6    1
     9     5     7    1
    10     5    11    1
    11     5    14    1
    12     6     8    1
    13     6    12    1
    14     6    20    1
    15     7    10    1
    16     7    21    1
    17     7    22    1
    18     8     9    1
    19     8    23    1
    20     8    24    1
    21     9    10    1
    22     9    16    1
    23     9    25    1
    24    10    26    1
    25    11    13    1
    26    11    27    1
    27    11    28    1
    28    12    15    1
    29    12    18    2
    30    13    15    1
    31    13    29    1
    32    14    30    1
    33    14    31    1
    34    14    32    1
    35    15    33    1
    36    16    17    1
    37    16    19    2
    38    18    34    1
    39    18    35    1
    40    19    38    1
    41    19    39    1
