@<TRIPOS>MOLECULE
IMPHY008316
 83 89 0 0 0
SMALL
GASTEIGER

@<TRIPOS>ATOM
      1 O          10.7184   -3.7657    0.0000 O.3     1  UNL1       -0.4608
      2 O           8.1064   -0.2373    0.0000 O.3     1  UNL1       -0.4549
      3 O           9.8723    0.8005    0.0000 O.3     1  UNL1       -0.3758
      4 O           7.2458   -0.7342    0.0000 O.2     1  UNL1       -0.2929
      5 O           5.4641   -1.7446    0.0000 O.3     1  UNL1       -0.4501
      6 O          12.4399   -3.7985    0.0000 O.2     1  UNL1       -0.2508
      7 O           8.9550    1.2726    0.0000 O.2     1  UNL1       -0.2449
      8 O           4.5923   -3.2413    0.0000 O.2     1  UNL1       -0.2449
      9 O           6.1193    3.7118    0.0000 O.3     1  UNL1       -0.4526
     10 O           4.7349    2.8910    0.0000 O.3     1  UNL1       -0.4526
     11 C           9.8602   -2.2688    0.0000 C.3     1  UNL1        0.0158
     12 C           8.9942   -1.7688    0.0000 C.3     1  UNL1        0.0201
     13 C           8.1282   -2.2688    0.0000 C.3     1  UNL1        0.0397
     14 C          10.7702   -1.7619    0.0000 C.3     1  UNL1       -0.0168
     15 C           9.8602   -3.2688    0.0000 C.3     1  UNL1        0.1093
     16 C           8.1282   -3.2688    0.0000 C.3     1  UNL1       -0.0249
     17 C           8.9781   -0.7273    0.0000 C.3     1  UNL1        0.1339
     18 C           8.9942   -3.7688    0.0000 C.3     1  UNL1       -0.0114
     19 C          10.7783   -0.7203    0.0000 C.3     1  UNL1       -0.0101
     20 C           9.8762   -0.1995    0.0000 C.3     1  UNL1        0.0983
     21 C           9.8602   -1.2688    0.0000 C.3     1  UNL1       -0.0555
     22 C          11.6095   -2.2901    0.0000 C.3     1  UNL1        0.0487
     23 C           7.2342   -3.8034    0.0000 C.3     1  UNL1       -0.0454
     24 C           7.2342   -1.7341    0.0000 C.2     1  UNL1        0.1800
     25 C           8.1282   -1.2688    0.0000 C.3     1  UNL1       -0.0520
     26 C           6.3282   -2.2479    0.0000 C.3     1  UNL1        0.1614
     27 C           6.3282   -3.2896    0.0000 C.3     1  UNL1       -0.0083
     28 C          11.6462   -0.2237    0.0000 C.3     1  UNL1       -0.0597
     29 C          11.5839   -3.2815    0.0000 C.2     1  UNL1        0.3076
     30 C           8.0948    0.7626    0.0000 C.2     1  UNL1        0.3397
     31 C          10.7364    1.3038    0.0000 C.3     1  UNL1        0.0370
     32 C           4.5961   -2.2413    0.0000 C.2     1  UNL1        0.3398
     33 C           7.2231    1.2526    0.0000 C.ar    1  UNL1        0.0627
     34 C           3.7320   -1.7379    0.0000 C.ar    1  UNL1        0.0590
     35 C           7.2115    2.2525    0.0000 C.ar    1  UNL1       -0.0022
     36 C           6.3629    0.7426    0.0000 C.ar    1  UNL1       -0.0441
     37 C           6.3398    2.7425    0.0000 C.ar    1  UNL1        0.1670
     38 C           5.4912    1.2326    0.0000 C.ar    1  UNL1       -0.0154
     39 C           3.7359   -0.7379    0.0000 C.ar    1  UNL1       -0.0478
     40 C           2.8641   -2.2346    0.0000 C.ar    1  UNL1       -0.0478
     41 C           5.4796    2.2325    0.0000 C.ar    1  UNL1        0.1663
     42 C           2.8718   -0.2346    0.0000 C.ar    1  UNL1       -0.0610
     43 C           2.0000   -1.7313    0.0000 C.ar    1  UNL1       -0.0610
     44 C           2.0038   -0.7313    0.0000 C.ar    1  UNL1       -0.0617
     45 C           5.1295    3.8034    0.0000 C.3     1  UNL1        0.2332
     46 H           8.2548   -1.3494    0.0000 H       1  UNL1        0.0353
     47 H          11.5159   -1.3539    0.0000 H       1  UNL1        0.0316
     48 H           9.8597   -4.1188    0.0000 H       1  UNL1        0.0739
     49 H           8.1347   -4.1187    0.0000 H       1  UNL1        0.0311
     50 H           8.9722   -0.1073    0.0000 H       1  UNL1        0.0763
     51 H           8.5957   -4.2437    0.0000 H       1  UNL1        0.0304
     52 H           9.3927   -4.2437    0.0000 H       1  UNL1        0.0304
     53 H          10.7795   -0.1003    0.0000 H       1  UNL1        0.0327
     54 H          10.4125    0.1115    0.0000 H       1  UNL1        0.0636
     55 H          10.4802   -1.2688    0.0000 H       1  UNL1        0.0236
     56 H           9.8602   -0.6488    0.0000 H       1  UNL1        0.0236
     57 H           9.2402   -1.2688    0.0000 H       1  UNL1        0.0236
     58 H          12.2166   -2.4160    0.0000 H       1  UNL1        0.0380
     59 H          11.8413   -1.7151    0.0000 H       1  UNL1        0.0380
     60 H           6.8406   -4.2824    0.0000 H       1  UNL1        0.0269
     61 H           7.6388   -4.2732    0.0000 H       1  UNL1        0.0269
     62 H           8.7482   -1.2688    0.0000 H       1  UNL1        0.0239
     63 H           8.1282   -0.6488    0.0000 H       1  UNL1        0.0239
     64 H           7.5082   -1.2688    0.0000 H       1  UNL1        0.0239
     65 H           5.7906   -2.5569    0.0000 H       1  UNL1        0.0815
     66 H           5.7173   -3.1835    0.0000 H       1  UNL1        0.0305
     67 H           6.1191   -3.8733    0.0000 H       1  UNL1        0.0305
     68 H          11.9541   -0.7618    0.0000 H       1  UNL1        0.0233
     69 H          12.1843    0.0843    0.0000 H       1  UNL1        0.0233
     70 H          11.3383    0.3145    0.0000 H       1  UNL1        0.0233
     71 H          11.0485    0.7681    0.0000 H       1  UNL1        0.0524
     72 H          11.2722    1.6159    0.0000 H       1  UNL1        0.0524
     73 H          10.4243    1.8396    0.0000 H       1  UNL1        0.0524
     74 H           7.7448    2.5687    0.0000 H       1  UNL1        0.0663
     75 H           6.3701    0.1226    0.0000 H       1  UNL1        0.0627
     76 H           4.9578    0.9164    0.0000 H       1  UNL1        0.0655
     77 H           4.2740   -0.4300    0.0000 H       1  UNL1        0.0626
     78 H           2.8617   -2.8546    0.0000 H       1  UNL1        0.0626
     79 H           2.8742    0.3854    0.0000 H       1  UNL1        0.0618
     80 H           1.4619   -2.0392    0.0000 H       1  UNL1        0.0618
     81 H           1.4681   -0.4192    0.0000 H       1  UNL1        0.0618
     82 H           5.2512    4.4114    0.0000 H       1  UNL1        0.1166
     83 H           4.5377    3.9884    0.0000 H       1  UNL1        0.1166
@<TRIPOS>BOND
     1     1    15    1
     2     1    29    1
     3    17     2    1
     4     2    30    1
     5     3    20    1
     6     3    31    1
     7     4    24    2
     8    26     5    1
     9     5    32    1
    10     6    29    2
    11     7    30    2
    12     8    32    2
    13     9    37    1
    14     9    45    1
    15    10    41    1
    16    10    45    1
    17    11    12    1
    18    11    14    1
    19    11    15    1
    20    11    21    1
    21    12    13    1
    22    12    17    1
    23    12    46    1
    24    13    16    1
    25    13    24    1
    26    13    25    1
    27    14    19    1
    28    14    22    1
    29    14    47    1
    30    15    18    1
    31    15    48    1
    32    16    18    1
    33    16    23    1
    34    16    49    1
    35    17    20    1
    36    17    50    1
    37    18    51    1
    38    18    52    1
    39    19    20    1
    40    19    28    1
    41    19    53    1
    42    20    54    1
    43    21    55    1
    44    21    56    1
    45    21    57    1
    46    22    29    1
    47    22    58    1
    48    22    59    1
    49    23    27    1
    50    23    60    1
    51    23    61    1
    52    24    26    1
    53    25    62    1
    54    25    63    1
    55    25    64    1
    56    26    27    1
    57    26    65    1
    58    27    66    1
    59    27    67    1
    60    28    68    1
    61    28    69    1
    62    28    70    1
    63    30    33    1
    64    31    71    1
    65    31    72    1
    66    31    73    1
    67    32    34    1
    68    33    35   ar
    69    33    36   ar
    70    34    39   ar
    71    34    40   ar
    72    35    37   ar
    73    35    74    1
    74    36    38   ar
    75    36    75    1
    76    37    41   ar
    77    38    41   ar
    78    38    76    1
    79    39    42   ar
    80    39    77    1
    81    40    43   ar
    82    40    78    1
    83    42    44   ar
    84    42    79    1
    85    43    44   ar
    86    43    80    1
    87    44    81    1
    88    45    82    1
    89    45    83    1
