@<TRIPOS>MOLECULE
IMPHY001617
 55 60 0 0 0
SMALL
GASTEIGER

@<TRIPOS>ATOM
      1 O           3.8076    1.3444    0.0000 O.3     1  UNL1       -0.4602
      2 O           7.6812   -0.2434    0.0000 O.3     1  UNL1       -0.3769
      3 O           5.0332    2.5682    0.0000 O.2     1  UNL1       -0.2512
      4 N           6.1798   -0.8097    0.0000 N.3     1  UNL1       -0.2693
      5 N           4.0899   -1.7652    0.0000 N.pl3   1  UNL1       -0.3272
      6 C           4.5153   -0.4559    0.0000 C.3     1  UNL1        0.0560
      7 C           6.4862    0.6318    0.0000 C.3     1  UNL1        0.0160
      8 C           5.9169   -0.0005    0.0000 C.3     1  UNL1        0.0205
      9 C           5.6105   -1.4420    0.0000 C.3     1  UNL1        0.0327
     10 C           6.7056   -2.4281    0.0000 C.3     1  UNL1       -0.0255
     11 C           4.7782   -1.2651    0.0000 C.3     1  UNL1        0.0519
     12 C           4.5142    0.6368    0.0000 C.3     1  UNL1        0.1189
     13 C           5.0846    0.1764    0.0000 C.3     1  UNL1       -0.0219
     14 C           5.8734   -2.2512    0.0000 C.3     1  UNL1       -0.0319
     15 C           7.2750   -1.7958    0.0000 C.3     1  UNL1        0.0018
     16 C           7.0121   -0.9866    0.0000 C.3     1  UNL1        0.1123
     17 C           3.6645   -0.4559    0.0000 C.ar    1  UNL1       -0.0148
     18 C           3.4016   -1.2651    0.0000 C.ar    1  UNL1        0.0337
     19 C           8.2531   -2.0037    0.0000 C.3     1  UNL1       -0.0492
     20 C           3.0952    0.1764    0.0000 C.ar    1  UNL1       -0.0561
     21 C           4.0983   -2.7651    0.0000 C.3     1  UNL1        0.0011
     22 C           2.5693   -1.4420    0.0000 C.ar    1  UNL1       -0.0404
     23 C           8.5621   -2.9547    0.0000 C.3     1  UNL1       -0.0649
     24 C           4.0671    2.3101    0.0000 C.2     1  UNL1        0.3042
     25 C           2.2629   -0.0005    0.0000 C.ar    1  UNL1       -0.0614
     26 C           2.0000   -0.8097    0.0000 C.ar    1  UNL1       -0.0600
     27 C           3.3605    3.0177    0.0000 C.3     1  UNL1        0.0332
     28 H           6.9092    1.0851    0.0000 H       1  UNL1        0.0355
     29 H           5.7347    0.8298    0.0000 H       1  UNL1        0.0468
     30 H           5.1601   -2.1628    0.0000 H       1  UNL1        0.0482
     31 H           6.9683   -3.2365    0.0000 H       1  UNL1        0.0309
     32 H           4.6312   -2.1022    0.0000 H       1  UNL1        0.0525
     33 H           4.7523    1.2092    0.0000 H       1  UNL1        0.0747
     34 H           5.3169    0.7513    0.0000 H       1  UNL1        0.0291
     35 H           4.5588    0.5050    0.0000 H       1  UNL1        0.0291
     36 H           5.2594   -2.3374    0.0000 H       1  UNL1        0.0284
     37 H           5.8518   -2.8708    0.0000 H       1  UNL1        0.0284
     38 H           7.4666   -2.3854    0.0000 H       1  UNL1        0.0342
     39 H           7.6185   -1.1155    0.0000 H       1  UNL1        0.0770
     40 H           8.8671   -1.9174    0.0000 H       1  UNL1        0.0267
     41 H           8.2748   -1.3841    0.0000 H       1  UNL1        0.0267
     42 H           3.2868    0.7661    0.0000 H       1  UNL1        0.0621
     43 H           3.4784   -2.7704    0.0000 H       1  UNL1        0.0428
     44 H           4.1036   -3.3851    0.0000 H       1  UNL1        0.0428
     45 H           4.7183   -2.7599    0.0000 H       1  UNL1        0.0428
     46 H           8.2876   -0.3723    0.0000 H       1  UNL1        0.2115
     47 H           2.3777   -2.0316    0.0000 H       1  UNL1        0.0636
     48 H           7.9725   -3.1463    0.0000 H       1  UNL1        0.0230
     49 H           8.7537   -3.5444    0.0000 H       1  UNL1        0.0230
     50 H           9.1518   -2.7632    0.0000 H       1  UNL1        0.0230
     51 H           1.8481    0.4603    0.0000 H       1  UNL1        0.0618
     52 H           1.3936   -0.9386    0.0000 H       1  UNL1        0.0618
     53 H           3.7992    3.4558    0.0000 H       1  UNL1        0.0342
     54 H           2.9224    3.4564    0.0000 H       1  UNL1        0.0342
     55 H           2.9217    2.5796    0.0000 H       1  UNL1        0.0342
@<TRIPOS>BOND
     1     1    12    1
     2     1    24    1
     3    16     2    1
     4     2    46    1
     5     3    24    2
     6     4     8    1
     7     4     9    1
     8     4    16    1
     9     5    11    1
    10     5    18    1
    11     5    21    1
    12     6    11    1
    13     6    12    1
    14     6    13    1
    15     6    17    1
    16     7     8    1
    17     7    10    1
    18     7    12    1
    19     7    28    1
    20     8    13    1
    21     8    29    1
    22     9    11    1
    23     9    14    1
    24     9    30    1
    25    10    14    1
    26    10    15    1
    27    10    31    1
    28    11    32    1
    29    12    33    1
    30    13    34    1
    31    13    35    1
    32    14    36    1
    33    14    37    1
    34    15    16    1
    35    15    19    1
    36    15    38    1
    37    16    39    1
    38    17    18   ar
    39    17    20   ar
    40    18    22   ar
    41    19    23    1
    42    19    40    1
    43    19    41    1
    44    20    25   ar
    45    20    42    1
    46    21    43    1
    47    21    44    1
    48    21    45    1
    49    22    26   ar
    50    22    47    1
    51    23    48    1
    52    23    49    1
    53    23    50    1
    54    24    27    1
    55    25    26   ar
    56    25    51    1
    57    26    52    1
    58    27    53    1
    59    27    54    1
    60    27    55    1
