@<TRIPOS>MOLECULE
IMPHY004661
 30 32 0 0 0
SMALL
GASTEIGER

@<TRIPOS>ATOM
      1 O           6.0682   -0.9254    0.0000 O.2     1  UNL1       -0.4544
      2 O           4.3198    2.1092    0.0000 O.3     1  UNL1       -0.5058
      3 O           6.0682    2.0746    0.0000 O.2     1  UNL1       -0.2869
      4 O           2.5381   -0.9495    0.0000 O.3     1  UNL1       -0.5065
      5 O          10.3984   -2.4254    0.0000 O.3     1  UNL1       -0.5068
      6 C           5.2022    0.5746    0.0000 C.ar    1  UNL1        0.1055
      7 C           5.2022   -0.4254    0.0000 C.ar    1  UNL1        0.1462
      8 C           6.9343   -0.4254    0.0000 C.ar    1  UNL1        0.1392
      9 C           7.8003   -0.9254    0.0000 C.ar    1  UNL1        0.0176
     10 C           6.0682    1.0746    0.0000 C.ar    1  UNL1        0.1966
     11 C           6.9343    0.5746    0.0000 C.ar    1  UNL1        0.0288
     12 C           4.3083    1.1093    0.0000 C.ar    1  UNL1        0.1347
     13 C           4.3083   -0.9601    0.0000 C.ar    1  UNL1        0.0231
     14 C           3.4022   -0.4462    0.0000 C.ar    1  UNL1        0.1239
     15 C           3.4022    0.5954    0.0000 C.ar    1  UNL1        0.0223
     16 C           7.8003   -1.9254    0.0000 C.ar    1  UNL1       -0.0476
     17 C           8.6663   -0.4254    0.0000 C.ar    1  UNL1       -0.0476
     18 C           8.6663   -2.4254    0.0000 C.ar    1  UNL1       -0.0195
     19 C           9.5323   -0.9254    0.0000 C.ar    1  UNL1       -0.0195
     20 C           9.5323   -1.9254    0.0000 C.ar    1  UNL1        0.1169
     21 H           7.4712    0.8846    0.0000 H       1  UNL1        0.0693
     22 H           4.3154   -1.5800    0.0000 H       1  UNL1        0.0691
     23 H           2.8665    0.9075    0.0000 H       1  UNL1        0.0691
     24 H           7.2634   -2.2354    0.0000 H       1  UNL1        0.0626
     25 H           8.6663    0.1946    0.0000 H       1  UNL1        0.0626
     26 H           8.6663   -3.0454    0.0000 H       1  UNL1        0.0654
     27 H          10.0693   -0.6154    0.0000 H       1  UNL1        0.0654
     28 H           3.7865    2.4254    0.0000 H       1  UNL1        0.2922
     29 H           2.0000   -0.6416    0.0000 H       1  UNL1        0.2921
     30 H          10.9353   -2.1154    0.0000 H       1  UNL1        0.2921
@<TRIPOS>BOND
     1     1     7   ar
     2     1     8   ar
     3     2    12    1
     4     2    28    1
     5     3    10    2
     6     4    14    1
     7     4    29    1
     8     5    20    1
     9     5    30    1
    10     6     7   ar
    11     6    10   ar
    12     6    12   ar
    13     7    13   ar
    14     8     9    1
    15     8    11   ar
    16     9    16   ar
    17     9    17   ar
    18    10    11   ar
    19    11    21    1
    20    12    15   ar
    21    13    14   ar
    22    13    22    1
    23    14    15   ar
    24    15    23    1
    25    16    18   ar
    26    16    24    1
    27    17    19   ar
    28    17    25    1
    29    18    20   ar
    30    18    26    1
    31    19    20   ar
    32    19    27    1
