@<TRIPOS>MOLECULE
IMPHY005144
 20 20 0 0 0
SMALL
GASTEIGER

@<TRIPOS>ATOM
      1 S           5.4641    2.7500    0.0000 S.2     1  UNL1        0.0203
      2 N           3.7320    1.7500    0.0000 N.2     1  UNL1       -0.2343
      3 C           2.8660    0.2500    0.0000 C.3     1  UNL1       -0.0073
      4 C           2.8660   -0.7500    0.0000 C.ar    1  UNL1       -0.0456
      5 C           3.7320    0.7500    0.0000 C.3     1  UNL1        0.0535
      6 C           2.0000   -1.2500    0.0000 C.ar    1  UNL1       -0.0585
      7 C           3.7320   -1.2500    0.0000 C.ar    1  UNL1       -0.0585
      8 C           2.0000   -2.2500    0.0000 C.ar    1  UNL1       -0.0615
      9 C           3.7320   -2.2500    0.0000 C.ar    1  UNL1       -0.0615
     10 C           2.8660   -2.7500    0.0000 C.ar    1  UNL1       -0.0617
     11 C           4.5981    2.2500    0.0000 C.1     1  UNL1        0.0358
     12 H           2.6540    0.8326    0.0000 H       1  UNL1        0.0331
     13 H           2.2554    0.1423    0.0000 H       1  UNL1        0.0331
     14 H           3.9441    0.1674    0.0000 H       1  UNL1        0.0519
     15 H           4.3426    0.8577    0.0000 H       1  UNL1        0.0519
     16 H           1.4631   -0.9400    0.0000 H       1  UNL1        0.0620
     17 H           4.2690   -0.9400    0.0000 H       1  UNL1        0.0620
     18 H           1.4631   -2.5600    0.0000 H       1  UNL1        0.0618
     19 H           4.2690   -2.5600    0.0000 H       1  UNL1        0.0618
     20 H           2.8660   -3.3700    0.0000 H       1  UNL1        0.0618
@<TRIPOS>BOND
     1     1    11    2
     2     2     5    1
     3     2    11    2
     4     3     4    1
     5     3     5    1
     6     3    12    1
     7     3    13    1
     8     4     6   ar
     9     4     7   ar
    10     5    14    1
    11     5    15    1
    12     6     8   ar
    13     6    16    1
    14     7     9   ar
    15     7    17    1
    16     8    10   ar
    17     8    18    1
    18     9    10   ar
    19     9    19    1
    20    10    20    1
