@<TRIPOS>MOLECULE
IMPHY001728
 28 30 0 0 0
SMALL
GASTEIGER

@<TRIPOS>ATOM
      1 O           6.4144    1.8592    0.0000 O.3     1  UNL1       -0.5052
      2 O           4.6660    1.8246    0.0000 O.2     1  UNL1       -0.2865
      3 O           4.6660   -2.1754    0.0000 O.2     1  UNL1       -0.2866
      4 O           8.1962   -1.1995    0.0000 O.3     1  UNL1       -0.5059
      5 O           9.0641    0.3521    0.0000 O.2     1  UNL1       -0.2955
      6 C           5.5321    0.3246    0.0000 C.ar    1  UNL1        0.0753
      7 C           5.5321   -0.6754    0.0000 C.ar    1  UNL1        0.0401
      8 C           3.8000    0.3246    0.0000 C.ar    1  UNL1        0.0332
      9 C           3.8000   -0.6754    0.0000 C.ar    1  UNL1        0.0331
     10 C           4.6660    0.8246    0.0000 C.2     1  UNL1        0.1980
     11 C           4.6660   -1.1754    0.0000 C.2     1  UNL1        0.1947
     12 C           6.4260    0.8593    0.0000 C.ar    1  UNL1        0.1420
     13 C           6.4260   -1.2100    0.0000 C.ar    1  UNL1       -0.0077
     14 C           7.3321    0.3454    0.0000 C.ar    1  UNL1        0.0976
     15 C           7.3321   -0.6962    0.0000 C.ar    1  UNL1        0.1313
     16 C           2.9061    0.8593    0.0000 C.ar    1  UNL1       -0.0502
     17 C           2.9061   -1.2100    0.0000 C.ar    1  UNL1       -0.0502
     18 C           2.0000    0.3454    0.0000 C.ar    1  UNL1       -0.0610
     19 C           2.0000   -0.6962    0.0000 C.ar    1  UNL1       -0.0610
     20 C           8.1962    0.8488    0.0000 C.2     1  UNL1        0.1572
     21 H           6.4188   -1.8300    0.0000 H       1  UNL1        0.0661
     22 H           2.9132    1.4792    0.0000 H       1  UNL1        0.0625
     23 H           2.9132   -1.8300    0.0000 H       1  UNL1        0.0625
     24 H           1.4643    0.6575    0.0000 H       1  UNL1        0.0618
     25 H           1.4643   -1.0083    0.0000 H       1  UNL1        0.0618
     26 H           8.1938    1.4688    0.0000 H       1  UNL1        0.1084
     27 H           6.9478    2.1754    0.0000 H       1  UNL1        0.2922
     28 H           8.1938   -1.8195    0.0000 H       1  UNL1        0.2922
@<TRIPOS>BOND
     1     1    12    1
     2     1    27    1
     3     2    10    2
     4     3    11    2
     5     4    15    1
     6     4    28    1
     7     5    20    2
     8     6     7   ar
     9     6    10    1
    10     6    12   ar
    11     7    11    1
    12     7    13   ar
    13     8     9   ar
    14     8    10    1
    15     8    16   ar
    16     9    11    1
    17     9    17   ar
    18    12    14   ar
    19    13    15   ar
    20    13    21    1
    21    14    15   ar
    22    14    20    1
    23    16    18   ar
    24    16    22    1
    25    17    19   ar
    26    17    23    1
    27    18    19   ar
    28    18    24    1
    29    19    25    1
    30    20    26    1
