@<TRIPOS>MOLECULE
IMPHY002292
 81 85 0 0 0
SMALL
GASTEIGER

@<TRIPOS>ATOM
      1 O           4.9587    0.5230    0.0000 O.3     1  UNL1       -0.3527
      2 O           7.5278    0.2140    0.0000 O.2     1  UNL1       -0.2930
      3 O           4.0357   -0.0648    0.0000 O.2     1  UNL1       -0.2888
      4 O           7.8023    2.3565    0.0000 O.2     1  UNL1       -0.2916
      5 O           2.6200    5.9461    0.0000 O.3     1  UNL1       -0.3888
      6 O           6.6420   -5.6340    0.0000 O.3     1  UNL1       -0.3888
      7 C           4.7331    2.3680    0.0000 C.3     1  UNL1        0.0169
      8 C           5.2677    1.4741    0.0000 C.3     1  UNL1        0.0862
      9 C           5.7677   -0.0648    0.0000 C.3     1  UNL1        0.1902
     10 C           6.6337   -1.5648    0.0000 C.3     1  UNL1       -0.0070
     11 C           6.2677    1.4741    0.0000 C.3     1  UNL1        0.1102
     12 C           6.6337   -0.5648    0.0000 C.3     1  UNL1       -0.0002
     13 C           5.2469    3.2741    0.0000 C.2     1  UNL1       -0.0546
     14 C           3.6484    2.3429    0.0000 C.3     1  UNL1       -0.0411
     15 C           6.5767    0.5230    0.0000 C.2     1  UNL1        0.1856
     16 C           5.7677   -2.0648    0.0000 C.2     1  UNL1       -0.0569
     17 C           3.6267    4.2179    0.0000 C.3     1  UNL1       -0.0089
     18 C           7.5437   -2.0716    0.0000 C.3     1  UNL1       -0.0434
     19 C           4.7117    4.2179    0.0000 C.3     1  UNL1       -0.0251
     20 C           3.0914    3.2741    0.0000 C.3     1  UNL1       -0.0465
     21 C           6.6497   -3.6340    0.0000 C.3     1  UNL1       -0.0089
     22 C           4.9017   -0.5648    0.0000 C.2     1  UNL1        0.1979
     23 C           5.7516   -3.1063    0.0000 C.3     1  UNL1       -0.0251
     24 C           4.2397    1.4982    0.0000 C.3     1  UNL1       -0.0534
     25 C           7.5518   -3.1132    0.0000 C.3     1  UNL1       -0.0465
     26 C           6.8024    2.3680    0.0000 C.2     1  UNL1        0.1717
     27 C           6.2885    3.2741    0.0000 C.2     1  UNL1       -0.0074
     28 C           4.9017   -1.5648    0.0000 C.2     1  UNL1       -0.0049
     29 C           7.4998   -1.0648    0.0000 C.3     1  UNL1       -0.0557
     30 C           3.1233    5.0820    0.0000 C.3     1  UNL1        0.0636
     31 C           6.6458   -4.6340    0.0000 C.3     1  UNL1        0.0636
     32 C           6.7919    4.1382    0.0000 C.3     1  UNL1       -0.0364
     33 C           4.0357   -2.0648    0.0000 C.3     1  UNL1       -0.0363
     34 C           2.2592    4.5786    0.0000 C.3     1  UNL1       -0.0361
     35 C           3.9874    5.5853    0.0000 C.3     1  UNL1       -0.0361
     36 C           7.6458   -4.6379    0.0000 C.3     1  UNL1       -0.0361
     37 C           5.6458   -4.6302    0.0000 C.3     1  UNL1       -0.0361
     38 H           4.6516    1.4045    0.0000 H       1  UNL1        0.0616
     39 H           6.8838    1.4045    0.0000 H       1  UNL1        0.0486
     40 H           7.2443   -0.6724    0.0000 H       1  UNL1        0.0310
     41 H           6.8458    0.0179    0.0000 H       1  UNL1        0.0310
     42 H           3.0697    2.1204    0.0000 H       1  UNL1        0.0274
     43 H           3.7685    1.7347    0.0000 H       1  UNL1        0.0274
     44 H           3.0067    4.2143    0.0000 H       1  UNL1        0.0331
     45 H           8.1554   -2.1730    0.0000 H       1  UNL1        0.0274
     46 H           7.7483   -1.4863    0.0000 H       1  UNL1        0.0274
     47 H           5.2954    4.4269    0.0000 H       1  UNL1        0.0314
     48 H           4.6056    4.8287    0.0000 H       1  UNL1        0.0314
     49 H           2.6124    3.6677    0.0000 H       1  UNL1        0.0269
     50 H           2.6216    2.8695    0.0000 H       1  UNL1        0.0269
     51 H           7.1860   -3.9450    0.0000 H       1  UNL1        0.0331
     52 H           5.1425   -2.9908    0.0000 H       1  UNL1        0.0314
     53 H           5.5336   -3.6867    0.0000 H       1  UNL1        0.0314
     54 H           7.7653   -3.6953    0.0000 H       1  UNL1        0.0269
     55 H           8.1618   -3.0024    0.0000 H       1  UNL1        0.0269
     56 H           3.7004    1.8040    0.0000 H       1  UNL1        0.0239
     57 H           3.9339    0.9589    0.0000 H       1  UNL1        0.0239
     58 H           4.7790    1.1923    0.0000 H       1  UNL1        0.0239
     59 H           7.8098   -1.6017    0.0000 H       1  UNL1        0.0238
     60 H           8.0367   -0.7548    0.0000 H       1  UNL1        0.0238
     61 H           7.1898   -0.5278    0.0000 H       1  UNL1        0.0238
     62 H           7.3276    3.8261    0.0000 H       1  UNL1        0.0279
     63 H           7.1039    4.6739    0.0000 H       1  UNL1        0.0279
     64 H           6.2561    4.4503    0.0000 H       1  UNL1        0.0279
     65 H           3.7257   -1.5278    0.0000 H       1  UNL1        0.0279
     66 H           3.4987   -2.3748    0.0000 H       1  UNL1        0.0279
     67 H           4.3457   -2.6017    0.0000 H       1  UNL1        0.0279
     68 H           4.2995    5.0496    0.0000 H       1  UNL1        0.0257
     69 H           4.5232    5.8974    0.0000 H       1  UNL1        0.0257
     70 H           3.6754    6.1210    0.0000 H       1  UNL1        0.0257
     71 H           1.9472    5.1144    0.0000 H       1  UNL1        0.0257
     72 H           1.7235    4.2666    0.0000 H       1  UNL1        0.0257
     73 H           2.5713    4.0429    0.0000 H       1  UNL1        0.0257
     74 H           7.6434   -5.2579    0.0000 H       1  UNL1        0.0257
     75 H           8.2658   -4.6402    0.0000 H       1  UNL1        0.0257
     76 H           7.6482   -4.0179    0.0000 H       1  UNL1        0.0257
     77 H           5.6482   -4.0102    0.0000 H       1  UNL1        0.0257
     78 H           5.0258   -4.6278    0.0000 H       1  UNL1        0.0257
     79 H           5.6434   -5.2502    0.0000 H       1  UNL1        0.0257
     80 H           2.0000    5.9437    0.0000 H       1  UNL1        0.2101
     81 H           7.1777   -5.9461    0.0000 H       1  UNL1        0.2101
@<TRIPOS>BOND
     1     1     8    1
     2     1     9    1
     3     2    15    2
     4     3    22    2
     5     4    26    2
     6     5    30    1
     7     5    80    1
     8     6    31    1
     9     6    81    1
    10     7     8    1
    11     7    13    1
    12     7    14    1
    13     7    24    1
    14     8    11    1
    15     8    38    1
    16     9    12    1
    17     9    15    1
    18     9    22    1
    19    10    12    1
    20    10    16    1
    21    10    18    1
    22    10    29    1
    23    11    15    1
    24    11    26    1
    25    11    39    1
    26    12    40    1
    27    12    41    1
    28    13    19    1
    29    13    27    2
    30    14    20    1
    31    14    42    1
    32    14    43    1
    33    16    23    1
    34    16    28    2
    35    17    19    1
    36    17    20    1
    37    17    30    1
    38    17    44    1
    39    18    25    1
    40    18    45    1
    41    18    46    1
    42    19    47    1
    43    19    48    1
    44    20    49    1
    45    20    50    1
    46    21    23    1
    47    21    25    1
    48    21    31    1
    49    21    51    1
    50    22    28    1
    51    23    52    1
    52    23    53    1
    53    24    56    1
    54    24    57    1
    55    24    58    1
    56    25    54    1
    57    25    55    1
    58    26    27    1
    59    27    32    1
    60    28    33    1
    61    29    59    1
    62    29    60    1
    63    29    61    1
    64    30    34    1
    65    30    35    1
    66    31    36    1
    67    31    37    1
    68    32    62    1
    69    32    63    1
    70    32    64    1
    71    33    65    1
    72    33    66    1
    73    33    67    1
    74    34    71    1
    75    34    72    1
    76    34    73    1
    77    35    68    1
    78    35    69    1
    79    35    70    1
    80    36    74    1
    81    36    75    1
    82    36    76    1
    83    37    77    1
    84    37    78    1
    85    37    79    1
