@<TRIPOS>MOLECULE
IMPHY015549
 40 41 0 0 0
SMALL
GASTEIGER

@<TRIPOS>ATOM
      1 O           3.5825    2.5948    0.0000 O.3     1  UNL1       -0.3912
      2 C           4.0835   -2.1294    0.0000 C.3     1  UNL1       -0.0310
      3 C           4.4245   -1.1805    0.0000 C.3     1  UNL1       -0.0291
      4 C           3.4848   -0.8385    0.0000 C.3     1  UNL1       -0.0163
      5 C           3.1361   -1.7845    0.0000 C.3     1  UNL1       -0.0408
      6 C           5.3642   -0.8385    0.0000 C.3     1  UNL1       -0.0455
      7 C           3.7434   -3.0698    0.0000 C.3     1  UNL1       -0.0595
      8 C           5.0239   -2.4695    0.0000 C.3     1  UNL1       -0.0595
      9 C           2.9848    0.0275    0.0000 C.2     1  UNL1       -0.0708
     10 C           5.8642    0.0275    0.0000 C.3     1  UNL1       -0.0316
     11 C           3.1585    1.0124    0.0000 C.3     1  UNL1       -0.0053
     12 C           3.9245    1.6551    0.0000 C.3     1  UNL1        0.0625
     13 C           5.6905    1.0124    0.0000 C.2     1  UNL1       -0.0742
     14 C           4.9245    1.6551    0.0000 C.3     1  UNL1       -0.0056
     15 C           2.0000   -0.1461    0.0000 C.2     1  UNL1       -0.0991
     16 C           6.5566    1.5124    0.0000 C.2     1  UNL1       -0.0994
     17 H           4.8638   -1.6180    0.0000 H       1  UNL1        0.0312
     18 H           2.8671   -0.8912    0.0000 H       1  UNL1        0.0349
     19 H           2.5540   -1.5709    0.0000 H       1  UNL1        0.0276
     20 H           2.9232   -2.3668    0.0000 H       1  UNL1        0.0276
     21 H           5.4002   -1.4574    0.0000 H       1  UNL1        0.0271
     22 H           5.9675   -0.9815    0.0000 H       1  UNL1        0.0271
     23 H           3.1604   -2.8589    0.0000 H       1  UNL1        0.0235
     24 H           3.5326   -3.6528    0.0000 H       1  UNL1        0.0235
     25 H           4.3265   -3.2806    0.0000 H       1  UNL1        0.0235
     26 H           4.8131   -3.0525    0.0000 H       1  UNL1        0.0235
     27 H           5.6070   -2.6803    0.0000 H       1  UNL1        0.0235
     28 H           5.2348   -1.8864    0.0000 H       1  UNL1        0.0235
     29 H           6.2897   -0.4234    0.0000 H       1  UNL1        0.0310
     30 H           6.4182    0.3058    0.0000 H       1  UNL1        0.0310
     31 H           2.9129    1.5816    0.0000 H       1  UNL1        0.0335
     32 H           2.5426    0.9404    0.0000 H       1  UNL1        0.0335
     33 H           4.2801    2.1630    0.0000 H       1  UNL1        0.0599
     34 H           5.4425    1.9958    0.0000 H       1  UNL1        0.0335
     35 H           4.7467    2.2491    0.0000 H       1  UNL1        0.0335
     36 H           1.6015    0.3288    0.0000 H       1  UNL1        0.0534
     37 H           1.7880   -0.7287    0.0000 H       1  UNL1        0.0534
     38 H           7.0935    1.2024    0.0000 H       1  UNL1        0.0534
     39 H           6.5566    2.1324    0.0000 H       1  UNL1        0.0534
     40 H           3.9810    3.0698    0.0000 H       1  UNL1        0.2098
@<TRIPOS>BOND
     1     1    12    1
     2     1    40    1
     3     2     3    1
     4     2     5    1
     5     2     7    1
     6     2     8    1
     7     3     4    1
     8     3     6    1
     9     3    17    1
    10     4     5    1
    11     4     9    1
    12     4    18    1
    13     5    19    1
    14     5    20    1
    15     6    10    1
    16     6    21    1
    17     6    22    1
    18     7    23    1
    19     7    24    1
    20     7    25    1
    21     8    26    1
    22     8    27    1
    23     8    28    1
    24     9    11    1
    25     9    15    2
    26    10    13    1
    27    10    29    1
    28    10    30    1
    29    11    12    1
    30    11    31    1
    31    11    32    1
    32    12    14    1
    33    12    33    1
    34    13    14    1
    35    13    16    2
    36    14    34    1
    37    14    35    1
    38    15    36    1
    39    15    37    1
    40    16    38    1
    41    16    39    1
