@<TRIPOS>MOLECULE
IMPHY016233
 62 61 0 0 0
SMALL
GASTEIGER

@<TRIPOS>ATOM
      1 O           7.1962    0.0000    0.0000 O.3     1  UNL1       -0.4644
      2 O           8.0622    1.5000    0.0000 O.2     1  UNL1       -0.2509
      3 C           5.4641    0.0000    0.0000 C.3     1  UNL1       -0.0069
      4 C           4.5981    0.5000    0.0000 C.3     1  UNL1       -0.0471
      5 C           5.4641   -1.0000    0.0000 C.3     1  UNL1       -0.0500
      6 C          12.3923   -0.0000    0.0000 C.3     1  UNL1       -0.0531
      7 C          13.2583    0.5000    0.0000 C.3     1  UNL1       -0.0531
      8 C          11.5263    0.5000    0.0000 C.3     1  UNL1       -0.0530
      9 C           6.3301    0.5000    0.0000 C.3     1  UNL1        0.0952
     10 C           3.7320   -0.0000    0.0000 C.3     1  UNL1       -0.0529
     11 C          14.1244   -0.0000    0.0000 C.3     1  UNL1       -0.0531
     12 C          10.6603   -0.0000    0.0000 C.3     1  UNL1       -0.0526
     13 C          14.9904    0.5000    0.0000 C.3     1  UNL1       -0.0531
     14 C           9.7942    0.5000    0.0000 C.3     1  UNL1       -0.0430
     15 C           2.8660    0.5000    0.0000 C.3     1  UNL1       -0.0559
     16 C          15.8564   -0.0000    0.0000 C.3     1  UNL1       -0.0533
     17 C           8.9282   -0.0000    0.0000 C.3     1  UNL1        0.0449
     18 C           4.5981   -1.5000    0.0000 C.3     1  UNL1       -0.0649
     19 C           8.0622    0.5000    0.0000 C.2     1  UNL1        0.3071
     20 C          16.7224    0.5000    0.0000 C.3     1  UNL1       -0.0559
     21 C           2.0000   -0.0000    0.0000 C.3     1  UNL1       -0.0653
     22 C          17.5885   -0.0000    0.0000 C.3     1  UNL1       -0.0653
     23 H           5.4641    0.6200    0.0000 H       1  UNL1        0.0333
     24 H           4.9966    0.9749    0.0000 H       1  UNL1        0.0269
     25 H           4.1996    0.9749    0.0000 H       1  UNL1        0.0269
     26 H          11.9938   -0.4749    0.0000 H       1  UNL1        0.0265
     27 H          12.7908   -0.4749    0.0000 H       1  UNL1        0.0265
     28 H           5.6762   -1.5826    0.0000 H       1  UNL1        0.0266
     29 H           6.0747   -0.8923    0.0000 H       1  UNL1        0.0266
     30 H          13.6569    0.9749    0.0000 H       1  UNL1        0.0265
     31 H          12.8598    0.9749    0.0000 H       1  UNL1        0.0265
     32 H          11.9248    0.9749    0.0000 H       1  UNL1        0.0265
     33 H          11.1278    0.9749    0.0000 H       1  UNL1        0.0265
     34 H           6.7287    0.9749    0.0000 H       1  UNL1        0.0700
     35 H           5.9316    0.9749    0.0000 H       1  UNL1        0.0700
     36 H           3.3335   -0.4749    0.0000 H       1  UNL1        0.0265
     37 H           4.1306   -0.4749    0.0000 H       1  UNL1        0.0265
     38 H          13.7258   -0.4749    0.0000 H       1  UNL1        0.0265
     39 H          14.5229   -0.4749    0.0000 H       1  UNL1        0.0265
     40 H          10.2617   -0.4749    0.0000 H       1  UNL1        0.0265
     41 H          11.0588   -0.4749    0.0000 H       1  UNL1        0.0265
     42 H          15.3889    0.9749    0.0000 H       1  UNL1        0.0265
     43 H          14.5919    0.9749    0.0000 H       1  UNL1        0.0265
     44 H          10.1928    0.9749    0.0000 H       1  UNL1        0.0270
     45 H           9.3957    0.9749    0.0000 H       1  UNL1        0.0270
     46 H           3.2646    0.9749    0.0000 H       1  UNL1        0.0263
     47 H           2.4675    0.9749    0.0000 H       1  UNL1        0.0263
     48 H          15.4579   -0.4749    0.0000 H       1  UNL1        0.0265
     49 H          16.2549   -0.4749    0.0000 H       1  UNL1        0.0265
     50 H           8.5297   -0.4749    0.0000 H       1  UNL1        0.0377
     51 H           9.3267   -0.4749    0.0000 H       1  UNL1        0.0377
     52 H           4.2881   -0.9631    0.0000 H       1  UNL1        0.0230
     53 H           4.0611   -1.8100    0.0000 H       1  UNL1        0.0230
     54 H           4.9081   -2.0369    0.0000 H       1  UNL1        0.0230
     55 H          17.1210    0.9749    0.0000 H       1  UNL1        0.0263
     56 H          16.3239    0.9749    0.0000 H       1  UNL1        0.0263
     57 H           1.6900    0.5369    0.0000 H       1  UNL1        0.0230
     58 H           1.4631   -0.3100    0.0000 H       1  UNL1        0.0230
     59 H           2.3100   -0.5369    0.0000 H       1  UNL1        0.0230
     60 H          17.2785   -0.5369    0.0000 H       1  UNL1        0.0230
     61 H          18.1254   -0.3100    0.0000 H       1  UNL1        0.0230
     62 H          17.8985    0.5369    0.0000 H       1  UNL1        0.0230
@<TRIPOS>BOND
     1     1     9    1
     2     1    19    1
     3     2    19    2
     4     3     4    1
     5     3     5    1
     6     3     9    1
     7     3    23    1
     8     4    10    1
     9     4    24    1
    10     4    25    1
    11     5    18    1
    12     5    28    1
    13     5    29    1
    14     6     7    1
    15     6     8    1
    16     6    26    1
    17     6    27    1
    18     7    11    1
    19     7    30    1
    20     7    31    1
    21     8    12    1
    22     8    32    1
    23     8    33    1
    24     9    34    1
    25     9    35    1
    26    10    15    1
    27    10    36    1
    28    10    37    1
    29    11    13    1
    30    11    38    1
    31    11    39    1
    32    12    14    1
    33    12    40    1
    34    12    41    1
    35    13    16    1
    36    13    42    1
    37    13    43    1
    38    14    17    1
    39    14    44    1
    40    14    45    1
    41    15    21    1
    42    15    46    1
    43    15    47    1
    44    16    20    1
    45    16    48    1
    46    16    49    1
    47    17    19    1
    48    17    50    1
    49    17    51    1
    50    18    52    1
    51    18    53    1
    52    18    54    1
    53    20    22    1
    54    20    55    1
    55    20    56    1
    56    21    57    1
    57    21    58    1
    58    21    59    1
    59    22    60    1
    60    22    61    1
    61    22    62    1
