@<TRIPOS>MOLECULE
IMPHY012936
 71 73 0 0 0
SMALL
GASTEIGER

@<TRIPOS>ATOM
      1 O           3.5000    1.0306    0.0000 O.2     1  UNL1       -0.2759
      2 O           9.0000    1.8966    0.0000 O.2     1  UNL1       -0.2708
      3 O           6.5000   -4.1656    0.0000 O.2     1  UNL1       -0.2708
      4 O           9.3660    1.2626    0.0000 O.3     1  UNL1       -0.4523
      5 O          11.5981    2.1286    0.0000 O.3     1  UNL1       -0.4223
      6 O          12.4641    3.6286    0.0000 O.2     1  UNL1       -0.2507
      7 N           3.5000   -0.7015    0.0000 N.am    1  UNL1       -0.3017
      8 N           7.5000    1.0306    0.0000 N.am    1  UNL1       -0.3118
      9 N           5.0000   -3.2996    0.0000 N.am    1  UNL1       -0.3118
     10 C           4.5000   -0.7015    0.0000 C.3     1  UNL1        0.0147
     11 C           5.0000    0.1645    0.0000 C.3     1  UNL1       -0.0357
     12 C           3.0000   -1.5675    0.0000 C.3     1  UNL1        0.0161
     13 C           6.0000    0.1645    0.0000 C.3     1  UNL1       -0.0360
     14 C           3.5000   -2.4335    0.0000 C.3     1  UNL1       -0.0215
     15 C           6.5000    1.0306    0.0000 C.3     1  UNL1        0.0119
     16 C           4.5000   -2.4335    0.0000 C.3     1  UNL1        0.0133
     17 C           3.0000    0.1645    0.0000 C.2     1  UNL1        0.2125
     18 C           2.0000    0.1645    0.0000 C.3     1  UNL1        0.0124
     19 C           8.0000    1.8966    0.0000 C.2     1  UNL1        0.2369
     20 C           6.0000   -3.2996    0.0000 C.2     1  UNL1        0.2369
     21 C           7.5000    2.7626    0.0000 C.2     1  UNL1        0.0007
     22 C           6.5000   -2.4335    0.0000 C.2     1  UNL1        0.0007
     23 C           8.0000    3.6286    0.0000 C.2     1  UNL1       -0.0496
     24 C           9.0000    3.6286    0.0000 C.ar    1  UNL1       -0.0212
     25 C           7.5000   -2.4335    0.0000 C.2     1  UNL1       -0.0497
     26 C           8.0000   -1.5675    0.0000 C.ar    1  UNL1       -0.0246
     27 C           9.8660    2.1286    0.0000 C.ar    1  UNL1        0.1711
     28 C           9.0000    2.6286    0.0000 C.ar    1  UNL1       -0.0085
     29 C           9.8660    4.1287    0.0000 C.ar    1  UNL1       -0.0509
     30 C          10.7321    2.6286    0.0000 C.ar    1  UNL1        0.1736
     31 C           9.0000    0.1645    0.0000 C.ar    1  UNL1        0.1286
     32 C           9.0000   -1.5675    0.0000 C.ar    1  UNL1       -0.0511
     33 C           7.4899   -0.6996    0.0000 C.ar    1  UNL1       -0.0511
     34 C          10.7321    3.6286    0.0000 C.ar    1  UNL1       -0.0150
     35 C           9.5000   -0.7015    0.0000 C.ar    1  UNL1       -0.0188
     36 C           7.9933    0.1723    0.0000 C.ar    1  UNL1       -0.0188
     37 C          12.4641    2.6286    0.0000 C.2     1  UNL1        0.3093
     38 C          13.3301    2.1286    0.0000 C.3     1  UNL1        0.0336
     39 H           4.3923   -1.3121    0.0000 H       1  UNL1        0.0464
     40 H           5.0826   -0.9135    0.0000 H       1  UNL1        0.0464
     41 H           5.1077    0.7751    0.0000 H       1  UNL1        0.0281
     42 H           4.4174    0.3766    0.0000 H       1  UNL1        0.0281
     43 H           2.5250   -1.1690    0.0000 H       1  UNL1        0.0465
     44 H           2.5250   -1.9660    0.0000 H       1  UNL1        0.0465
     45 H           5.8923   -0.4460    0.0000 H       1  UNL1        0.0281
     46 H           6.5826   -0.0475    0.0000 H       1  UNL1        0.0281
     47 H           2.9174   -2.6456    0.0000 H       1  UNL1        0.0295
     48 H           3.6077   -3.0441    0.0000 H       1  UNL1        0.0295
     49 H           6.6077    1.6412    0.0000 H       1  UNL1        0.0462
     50 H           5.9174    1.2426    0.0000 H       1  UNL1        0.0462
     51 H           5.0826   -2.2215    0.0000 H       1  UNL1        0.0462
     52 H           4.3923   -1.8230    0.0000 H       1  UNL1        0.0462
     53 H           7.1901    0.4936    0.0000 H       1  UNL1        0.1490
     54 H           2.0000    0.7845    0.0000 H       1  UNL1        0.0323
     55 H           1.3800    0.1645    0.0000 H       1  UNL1        0.0323
     56 H           2.0000   -0.4555    0.0000 H       1  UNL1        0.0323
     57 H           4.6900   -3.8365    0.0000 H       1  UNL1        0.1490
     58 H           6.8800    2.7626    0.0000 H       1  UNL1        0.0669
     59 H           6.1900   -1.8966    0.0000 H       1  UNL1        0.0669
     60 H           7.6900    4.1656    0.0000 H       1  UNL1        0.0625
     61 H           7.8100   -2.9705    0.0000 H       1  UNL1        0.0625
     62 H           8.4631    2.3186    0.0000 H       1  UNL1        0.0661
     63 H           9.8660    4.7486    0.0000 H       1  UNL1        0.0625
     64 H           9.3100   -2.1044    0.0000 H       1  UNL1        0.0625
     65 H           6.8699   -0.7019    0.0000 H       1  UNL1        0.0625
     66 H          11.2690    3.9386    0.0000 H       1  UNL1        0.0656
     67 H          10.1200   -0.7015    0.0000 H       1  UNL1        0.0654
     68 H           7.6854    0.7104    0.0000 H       1  UNL1        0.0654
     69 H          13.0201    1.5917    0.0000 H       1  UNL1        0.0342
     70 H          13.8671    1.8186    0.0000 H       1  UNL1        0.0342
     71 H          13.6401    2.6656    0.0000 H       1  UNL1        0.0342
@<TRIPOS>BOND
     1     1    17    2
     2     2    19    2
     3     3    20    2
     4     4    27    1
     5     4    31    1
     6     5    30    1
     7     5    37    1
     8     6    37    2
     9     7    10    1
    10     7    12    1
    11     7    17   am
    12     8    15    1
    13     8    19   am
    14     8    53    1
    15     9    16    1
    16     9    20   am
    17     9    57    1
    18    10    11    1
    19    10    39    1
    20    10    40    1
    21    11    13    1
    22    11    41    1
    23    11    42    1
    24    12    14    1
    25    12    43    1
    26    12    44    1
    27    13    15    1
    28    13    45    1
    29    13    46    1
    30    14    16    1
    31    14    47    1
    32    14    48    1
    33    15    49    1
    34    15    50    1
    35    16    51    1
    36    16    52    1
    37    17    18    1
    38    18    54    1
    39    18    55    1
    40    18    56    1
    41    19    21    1
    42    20    22    1
    43    21    23    2
    44    21    58    1
    45    22    25    2
    46    22    59    1
    47    23    24    1
    48    23    60    1
    49    24    28   ar
    50    24    29   ar
    51    25    26    1
    52    25    61    1
    53    26    32   ar
    54    26    33   ar
    55    27    28   ar
    56    27    30   ar
    57    28    62    1
    58    29    34   ar
    59    29    63    1
    60    30    34   ar
    61    31    35   ar
    62    31    36   ar
    63    32    35   ar
    64    32    64    1
    65    33    36   ar
    66    33    65    1
    67    34    66    1
    68    35    67    1
    69    36    68    1
    70    37    38    1
    71    38    69    1
    72    38    70    1
    73    38    71    1
