@<TRIPOS>MOLECULE
IMPHY009573
 48 49 0 0 0
SMALL
GASTEIGER

@<TRIPOS>ATOM
      1 O           6.3580   -1.5347    0.0000 O.2     1  UNL1       -0.4216
      2 O           4.5981    1.5000    0.0000 O.3     1  UNL1       -0.4871
      3 O           2.8660   -1.5000    0.0000 O.3     1  UNL1       -0.4946
      4 O           8.1282   -1.5241    0.0000 O.2     1  UNL1       -0.2452
      5 C           4.5981   -1.5000    0.0000 C.ar    1  UNL1        0.0411
      6 C           5.4641   -1.0000    0.0000 C.ar    1  UNL1        0.1495
      7 C           5.4641    0.0000    0.0000 C.ar    1  UNL1        0.0597
      8 C           4.5981   -2.5000    0.0000 C.3     1  UNL1       -0.0023
      9 C           3.7320   -1.0000    0.0000 C.ar    1  UNL1        0.1306
     10 C           4.5981    0.5000    0.0000 C.ar    1  UNL1        0.1351
     11 C           3.7320    0.0000    0.0000 C.ar    1  UNL1        0.0229
     12 C           3.7320   -3.0000    0.0000 C.2     1  UNL1       -0.0807
     13 C           6.3580    0.5347    0.0000 C.ar    1  UNL1       -0.0408
     14 C           3.7320   -4.0000    0.0000 C.2     1  UNL1       -0.0793
     15 C           7.2641    0.0208    0.0000 C.ar    1  UNL1        0.0237
     16 C           7.2641   -1.0208    0.0000 C.ar    1  UNL1        0.3372
     17 C           3.7320    2.0000    0.0000 C.3     1  UNL1        0.1081
     18 C           2.8660   -4.5000    0.0000 C.3     1  UNL1       -0.0440
     19 C           4.5981   -4.5000    0.0000 C.3     1  UNL1       -0.0440
     20 C           3.7320    3.0000    0.0000 C.2     1  UNL1       -0.0484
     21 C           2.0000   -1.0000    0.0000 C.3     1  UNL1        0.0788
     22 C           2.8660    3.5000    0.0000 C.2     1  UNL1       -0.0765
     23 C           2.8660    4.5000    0.0000 C.3     1  UNL1       -0.0439
     24 C           2.0000    3.0000    0.0000 C.3     1  UNL1       -0.0439
     25 H           4.8101   -3.0826    0.0000 H       1  UNL1        0.0358
     26 H           5.2087   -2.3923    0.0000 H       1  UNL1        0.0358
     27 H           3.1951    0.3100    0.0000 H       1  UNL1        0.0691
     28 H           3.1951   -2.6900    0.0000 H       1  UNL1        0.0575
     29 H           6.3509    1.1546    0.0000 H       1  UNL1        0.0628
     30 H           7.7998    0.3329    0.0000 H       1  UNL1        0.0689
     31 H           3.1215    2.1077    0.0000 H       1  UNL1        0.0742
     32 H           3.5200    1.4174    0.0000 H       1  UNL1        0.0742
     33 H           4.2881   -5.0369    0.0000 H       1  UNL1        0.0274
     34 H           5.1350   -4.8100    0.0000 H       1  UNL1        0.0274
     35 H           4.9081   -3.9631    0.0000 H       1  UNL1        0.0274
     36 H           2.5560   -3.9631    0.0000 H       1  UNL1        0.0274
     37 H           2.3291   -4.8100    0.0000 H       1  UNL1        0.0274
     38 H           3.1760   -5.0369    0.0000 H       1  UNL1        0.0274
     39 H           4.2690    3.3100    0.0000 H       1  UNL1        0.0605
     40 H           2.3100   -0.4631    0.0000 H       1  UNL1        0.0660
     41 H           1.4631   -0.6900    0.0000 H       1  UNL1        0.0660
     42 H           1.6900   -1.5369    0.0000 H       1  UNL1        0.0660
     43 H           3.4860    4.5000    0.0000 H       1  UNL1        0.0274
     44 H           2.8660    5.1200    0.0000 H       1  UNL1        0.0274
     45 H           2.2460    4.5000    0.0000 H       1  UNL1        0.0274
     46 H           1.6900    3.5369    0.0000 H       1  UNL1        0.0274
     47 H           1.4631    2.6900    0.0000 H       1  UNL1        0.0274
     48 H           2.3100    2.4631    0.0000 H       1  UNL1        0.0274
@<TRIPOS>BOND
     1     1     6   ar
     2     1    16   ar
     3     2    10    1
     4     2    17    1
     5     3     9    1
     6     3    21    1
     7     4    16    2
     8     5     6   ar
     9     5     8    1
    10     5     9   ar
    11     6     7   ar
    12     7    10   ar
    13     7    13   ar
    14     8    12    1
    15     8    25    1
    16     8    26    1
    17     9    11   ar
    18    10    11   ar
    19    11    27    1
    20    12    14    2
    21    12    28    1
    22    13    15   ar
    23    13    29    1
    24    14    18    1
    25    14    19    1
    26    15    16   ar
    27    15    30    1
    28    17    20    1
    29    17    31    1
    30    17    32    1
    31    18    36    1
    32    18    37    1
    33    18    38    1
    34    19    33    1
    35    19    34    1
    36    19    35    1
    37    20    22    2
    38    20    39    1
    39    21    40    1
    40    21    41    1
    41    21    42    1
    42    22    23    1
    43    22    24    1
    44    23    43    1
    45    23    44    1
    46    23    45    1
    47    24    46    1
    48    24    47    1
    49    24    48    1
