@<TRIPOS>MOLECULE
IMPHY003797
 48 51 0 0 0
SMALL
GASTEIGER

@<TRIPOS>ATOM
      1 O           9.4710    1.8103    0.0000 O.3     1  UNL1       -0.4646
      2 O          10.0125    0.1651    0.0000 O.2     1  UNL1       -0.2453
      3 O           7.5587   -2.9004    0.0000 O.2     1  UNL1       -0.2960
      4 N           6.9654    1.7077    0.0000 N.pl3   1  UNL1       -0.3264
      5 N           4.5124    0.5902    0.0000 N.ar    1  UNL1       -0.3562
      6 C           6.2962    0.9645    0.0000 C.3     1  UNL1        0.0643
      7 C           6.6028   -0.0310    0.0000 C.3     1  UNL1       -0.0176
      8 C           5.3181    1.1724    0.0000 C.ar    1  UNL1        0.0409
      9 C           7.6200   -0.2554    0.0000 C.3     1  UNL1        0.0219
     10 C           5.0091    2.1235    0.0000 C.ar    1  UNL1       -0.0158
     11 C           6.6564    2.6587    0.0000 C.3     1  UNL1        0.0164
     12 C           5.6782    2.8666    0.0000 C.3     1  UNL1       -0.0096
     13 C           8.3170    0.5187    0.0000 C.2     1  UNL1        0.0577
     14 C           7.9875    1.5068    0.0000 C.2     1  UNL1        0.0032
     15 C           4.0150    2.1209    0.0000 C.ar    1  UNL1        0.0032
     16 C           3.7086    1.1752    0.0000 C.ar    1  UNL1        0.0470
     17 C           7.9253   -1.2076    0.0000 C.2     1  UNL1       -0.0046
     18 C           3.3334    2.9004    0.0000 C.ar    1  UNL1       -0.0523
     19 C           9.2668    0.8314    0.0000 C.2     1  UNL1        0.3367
     20 C           2.6994    0.9435    0.0000 C.ar    1  UNL1       -0.0378
     21 C           8.9027   -1.4193    0.0000 C.2     1  UNL1       -0.0803
     22 C           2.3191    2.6921    0.0000 C.ar    1  UNL1       -0.0611
     23 C           7.2533   -1.9482    0.0000 C.2     1  UNL1        0.1465
     24 C           2.0000    1.7070    0.0000 C.ar    1  UNL1       -0.0598
     25 C           9.2080   -2.3715    0.0000 C.3     1  UNL1       -0.0462
     26 C          10.4208    2.1230    0.0000 C.3     1  UNL1        0.0820
     27 H           5.7226    0.3373    0.0000 H       1  UNL1        0.0564
     28 H           5.9878   -0.1094    0.0000 H       1  UNL1        0.0296
     29 H           6.5748   -0.6503    0.0000 H       1  UNL1        0.0296
     30 H           8.2262   -0.3855    0.0000 H       1  UNL1        0.0401
     31 H           7.2703    2.7450    0.0000 H       1  UNL1        0.0467
     32 H           6.6780    3.2784    0.0000 H       1  UNL1        0.0467
     33 H           5.9105    3.4415    0.0000 H       1  UNL1        0.0329
     34 H           5.1524    3.1952    0.0000 H       1  UNL1        0.0329
     35 H           8.3970    1.9724    0.0000 H       1  UNL1        0.0785
     36 H           4.5113   -0.0298    0.0000 H       1  UNL1        0.1657
     37 H           3.5313    3.4880    0.0000 H       1  UNL1        0.0624
     38 H           2.5152    0.3515    0.0000 H       1  UNL1        0.0638
     39 H           9.4931   -1.2300    0.0000 H       1  UNL1        0.0573
     40 H           6.6474   -1.8169    0.0000 H       1  UNL1        0.1078
     41 H           1.9056    3.1541    0.0000 H       1  UNL1        0.0618
     42 H           1.3942    1.5752    0.0000 H       1  UNL1        0.0618
     43 H           8.6176   -2.5609    0.0000 H       1  UNL1        0.0272
     44 H           9.3973   -2.9619    0.0000 H       1  UNL1        0.0272
     45 H           9.7984   -2.1822    0.0000 H       1  UNL1        0.0272
     46 H          10.6147    1.5341    0.0000 H       1  UNL1        0.0661
     47 H          11.0097    2.3169    0.0000 H       1  UNL1        0.0661
     48 H          10.2270    2.7119    0.0000 H       1  UNL1        0.0661
@<TRIPOS>BOND
     1     1    19    1
     2     1    26    1
     3     2    19    2
     4     3    23    2
     5     4     6    1
     6     4    11    1
     7     4    14    1
     8     5     8   ar
     9     5    16   ar
    10     5    36    1
    11     6     7    1
    12     6     8    1
    13     6    27    1
    14     7     9    1
    15     7    28    1
    16     7    29    1
    17     8    10   ar
    18     9    13    1
    19     9    17    1
    20     9    30    1
    21    10    12    1
    22    10    15   ar
    23    11    12    1
    24    11    31    1
    25    11    32    1
    26    12    33    1
    27    12    34    1
    28    13    14    2
    29    13    19    1
    30    14    35    1
    31    15    16   ar
    32    15    18   ar
    33    16    20   ar
    34    17    21    2
    35    17    23    1
    36    18    22   ar
    37    18    37    1
    38    20    24   ar
    39    20    38    1
    40    21    25    1
    41    21    39    1
    42    22    24   ar
    43    22    41    1
    44    23    40    1
    45    24    42    1
    46    25    43    1
    47    25    44    1
    48    25    45    1
    49    26    46    1
    50    26    47    1
    51    26    48    1
