@<TRIPOS>MOLECULE
IMPHY014027
 53 56 0 0 0
SMALL
GASTEIGER

@<TRIPOS>ATOM
      1 O           8.4883    0.5714    0.0000 O.3     1  UNL1       -0.3907
      2 C           3.8778   -0.1465    0.0000 C.3     1  UNL1       -0.0251
      3 C           4.7853    0.3648    0.0000 C.3     1  UNL1       -0.0262
      4 C           5.6538   -0.1308    0.0000 C.3     1  UNL1       -0.0070
      5 C           3.8750   -1.1882    0.0000 C.3     1  UNL1       -0.0302
      6 C           5.6751   -1.1722    0.0000 C.3     1  UNL1       -0.0433
      7 C           2.9423   -1.7425    0.0000 C.3     1  UNL1       -0.0315
      8 C           5.6293    1.0505    0.0000 C.3     1  UNL1       -0.0370
      9 C           4.7797   -1.7045    0.0000 C.3     1  UNL1       -0.0484
     10 C           4.6313    1.3529    0.0000 C.3     1  UNL1       -0.0484
     11 C           6.3054    2.0196    0.0000 C.3     1  UNL1       -0.0169
     12 C           2.9482    0.4129    0.0000 C.3     1  UNL1       -0.0471
     13 C           5.3078    2.0894    0.0000 C.3     1  UNL1       -0.0461
     14 C           6.5828    0.2391    0.0000 C.2     1  UNL1       -0.0759
     15 C           2.0000   -1.2047    0.0000 C.3     1  UNL1       -0.0476
     16 C           3.5384    0.7941    0.0000 C.3     1  UNL1       -0.0590
     17 C           2.0029   -0.1197    0.0000 C.3     1  UNL1       -0.0521
     18 C           6.8728    1.1962    0.0000 C.2     1  UNL1       -0.0448
     19 C           2.4500   -2.6130    0.0000 C.3     1  UNL1       -0.0595
     20 C           3.4500   -2.6041    0.0000 C.3     1  UNL1       -0.0595
     21 C           7.8609    1.3502    0.0000 C.3     1  UNL1        0.0656
     22 H           4.0471    0.7862    0.0000 H       1  UNL1        0.0314
     23 H           3.8825   -2.0381    0.0000 H       1  UNL1        0.0311
     24 H           5.8960   -1.7516    0.0000 H       1  UNL1        0.0274
     25 H           6.2836   -1.0537    0.0000 H       1  UNL1        0.0274
     26 H           5.2551    1.5448    0.0000 H       1  UNL1        0.0279
     27 H           5.0436    0.8471    0.0000 H       1  UNL1        0.0279
     28 H           4.3847   -2.1824    0.0000 H       1  UNL1        0.0269
     29 H           5.1830   -2.1754    0.0000 H       1  UNL1        0.0269
     30 H           4.2795    1.8634    0.0000 H       1  UNL1        0.0269
     31 H           4.0553    1.1235    0.0000 H       1  UNL1        0.0269
     32 H           6.5519    2.8331    0.0000 H       1  UNL1        0.0347
     33 H           3.3541    0.8816    0.0000 H       1  UNL1        0.0271
     34 H           2.5559    0.8930    0.0000 H       1  UNL1        0.0271
     35 H           5.4876    2.6827    0.0000 H       1  UNL1        0.0271
     36 H           4.7694    2.3967    0.0000 H       1  UNL1        0.0271
     37 H           7.0394   -0.1803    0.0000 H       1  UNL1        0.0578
     38 H           1.3894   -1.0970    0.0000 H       1  UNL1        0.0271
     39 H           1.7894   -1.7879    0.0000 H       1  UNL1        0.0271
     40 H           4.1216    1.0046    0.0000 H       1  UNL1        0.0235
     41 H           3.3279    1.3773    0.0000 H       1  UNL1        0.0235
     42 H           2.9552    0.5836    0.0000 H       1  UNL1        0.0235
     43 H           1.7955    0.4645    0.0000 H       1  UNL1        0.0266
     44 H           1.3918   -0.2242    0.0000 H       1  UNL1        0.0266
     45 H           1.9104   -2.3077    0.0000 H       1  UNL1        0.0235
     46 H           2.1448   -3.1526    0.0000 H       1  UNL1        0.0235
     47 H           2.9897   -2.9182    0.0000 H       1  UNL1        0.0235
     48 H           2.9158   -2.9188    0.0000 H       1  UNL1        0.0235
     49 H           3.7647   -3.1383    0.0000 H       1  UNL1        0.0235
     50 H           3.9841   -2.2894    0.0000 H       1  UNL1        0.0235
     51 H           8.4039    1.6494    0.0000 H       1  UNL1        0.0604
     52 H           7.6605    1.9369    0.0000 H       1  UNL1        0.0604
     53 H           9.1009    0.6669    0.0000 H       1  UNL1        0.2098
@<TRIPOS>BOND
     1     1    21    1
     2     1    53    1
     3     2     3    1
     4     2     5    1
     5     2    12    1
     6     2    16    1
     7     3     4    1
     8     3    10    1
     9     3    22    1
    10     4     6    1
    11     4     8    1
    12     4    14    1
    13     5     7    1
    14     5     9    1
    15     5    23    1
    16     6     9    1
    17     6    24    1
    18     6    25    1
    19     7    15    1
    20     7    19    1
    21     7    20    1
    22     8    11    1
    23     8    26    1
    24     8    27    1
    25     9    28    1
    26     9    29    1
    27    10    13    1
    28    10    30    1
    29    10    31    1
    30    11    13    1
    31    11    18    1
    32    11    32    1
    33    12    17    1
    34    12    33    1
    35    12    34    1
    36    13    35    1
    37    13    36    1
    38    14    18    2
    39    14    37    1
    40    15    17    1
    41    15    38    1
    42    15    39    1
    43    16    40    1
    44    16    41    1
    45    16    42    1
    46    17    43    1
    47    17    44    1
    48    18    21    1
    49    19    45    1
    50    19    46    1
    51    19    47    1
    52    20    48    1
    53    20    49    1
    54    20    50    1
    55    21    51    1
    56    21    52    1
