@<TRIPOS>MOLECULE
IMPHY012310
 75 79 0 0 0
SMALL
GASTEIGER

@<TRIPOS>ATOM
      1 O           3.8611   -0.4274    0.0000 O.3     1  UNL1       -0.3645
      2 O           3.7320    1.7396    0.0000 O.3     1  UNL1       -0.4585
      3 O           8.1003    1.2365    0.0000 O.2     1  UNL1       -0.2921
      4 O           5.4280    4.5131    0.0000 O.3     1  UNL1       -0.4673
      5 O           3.9381    3.6298    0.0000 O.2     1  UNL1       -0.2499
      6 O           8.0622   -1.7604    0.0000 O.3     1  UNL1       -0.4679
      7 O           6.3301   -1.7604    0.0000 O.2     1  UNL1       -0.2509
      8 O           5.6787   -5.2696    0.0000 O.2     1  UNL1       -0.4707
      9 O           2.8660    0.2396    0.0000 O.2     1  UNL1       -0.2512
     10 C           5.4641   -0.2604    0.0000 C.3     1  UNL1        0.0255
     11 C           6.3301    0.2396    0.0000 C.3     1  UNL1       -0.0065
     12 C           6.3301    1.2396    0.0000 C.3     1  UNL1        0.0419
     13 C           4.5981    0.2396    0.0000 C.3     1  UNL1        0.1059
     14 C           5.4641    1.7396    0.0000 C.3     1  UNL1        0.0303
     15 C           4.5981    1.2396    0.0000 C.3     1  UNL1        0.1348
     16 C           5.2549   -1.2322    0.0000 C.2     1  UNL1       -0.0328
     17 C           4.2662   -1.3352    0.0000 C.3     1  UNL1        0.0819
     18 C           5.4480    2.7811    0.0000 C.3     1  UNL1        0.0905
     19 C           6.3301   -0.7604    0.0000 C.3     1  UNL1       -0.0530
     20 C           7.1962   -0.2604    0.0000 C.3     1  UNL1        0.0495
     21 C           4.0624   -2.3022    0.0000 C.3     1  UNL1       -0.0121
     22 C           5.6537   -2.1363    0.0000 C.2     1  UNL1       -0.0628
     23 C           7.1962    0.7396    0.0000 C.3     1  UNL1       -0.0518
     24 C           7.2401    1.7465    0.0000 C.2     1  UNL1        0.1624
     25 C           4.9182   -2.7963    0.0000 C.3     1  UNL1        0.0109
     26 C           6.3461    3.3089    0.0000 C.2     1  UNL1       -0.0639
     27 C           4.4481    2.7696    0.0000 C.3     1  UNL1       -0.0454
     28 C           7.2482    2.7881    0.0000 C.2     1  UNL1       -0.0215
     29 C           4.9381    3.6413    0.0000 C.2     1  UNL1        0.3170
     30 C           6.6313   -2.3468    0.0000 C.3     1  UNL1       -0.0429
     31 C           7.1962   -1.2604    0.0000 C.2     1  UNL1        0.3071
     32 C           5.0219   -3.7909    0.0000 C.ar    1  UNL1       -0.0025
     33 C           2.8660    1.2396    0.0000 C.2     1  UNL1        0.3043
     34 C           4.2781   -4.4594    0.0000 C.ar    1  UNL1       -0.0202
     35 C           5.8874   -4.2916    0.0000 C.ar    1  UNL1        0.0954
     36 C           2.0000    1.7396    0.0000 C.3     1  UNL1        0.0332
     37 C           4.6841   -5.3733    0.0000 C.ar    1  UNL1        0.0920
     38 C           4.9180    5.3733    0.0000 C.3     1  UNL1        0.0817
     39 C           8.0622   -2.7604    0.0000 C.3     1  UNL1        0.0817
     40 H           6.3301   -0.3804    0.0000 H       1  UNL1        0.0325
     41 H           3.8211    0.5844    0.0000 H       1  UNL1        0.0642
     42 H           6.1969    2.1703    0.0000 H       1  UNL1        0.0361
     43 H           4.5981    1.8596    0.0000 H       1  UNL1        0.0764
     44 H           3.4210   -1.4252    0.0000 H       1  UNL1        0.0644
     45 H           6.0201   -1.2973    0.0000 H       1  UNL1        0.0239
     46 H           6.8671   -1.0704    0.0000 H       1  UNL1        0.0239
     47 H           6.6401   -0.2234    0.0000 H       1  UNL1        0.0239
     48 H           7.8067   -0.3680    0.0000 H       1  UNL1        0.0381
     49 H           7.4082    0.3223    0.0000 H       1  UNL1        0.0381
     50 H           3.4725   -2.1113    0.0000 H       1  UNL1        0.0302
     51 H           3.8105   -2.8687    0.0000 H       1  UNL1        0.0302
     52 H           6.8862    0.2027    0.0000 H       1  UNL1        0.0239
     53 H           7.7331    0.4296    0.0000 H       1  UNL1        0.0239
     54 H           7.5062    1.2766    0.0000 H       1  UNL1        0.0239
     55 H           5.4967   -3.0192    0.0000 H       1  UNL1        0.0396
     56 H           6.3437    3.9289    0.0000 H       1  UNL1        0.0584
     57 H           4.4409    3.3896    0.0000 H       1  UNL1        0.0243
     58 H           3.8282    2.7624    0.0000 H       1  UNL1        0.0243
     59 H           4.4553    2.1496    0.0000 H       1  UNL1        0.0243
     60 H           7.7863    3.0960    0.0000 H       1  UNL1        0.0650
     61 H           6.5008   -2.9529    0.0000 H       1  UNL1        0.0275
     62 H           7.2374   -2.4772    0.0000 H       1  UNL1        0.0275
     63 H           6.7618   -1.7406    0.0000 H       1  UNL1        0.0275
     64 H           3.6718   -4.3300    0.0000 H       1  UNL1        0.0652
     65 H           6.4541   -4.0400    0.0000 H       1  UNL1        0.1032
     66 H           2.3100    2.2766    0.0000 H       1  UNL1        0.0342
     67 H           1.4631    2.0496    0.0000 H       1  UNL1        0.0342
     68 H           1.6900    1.2027    0.0000 H       1  UNL1        0.0342
     69 H           4.3736   -5.9099    0.0000 H       1  UNL1        0.1029
     70 H           5.4514    5.6895    0.0000 H       1  UNL1        0.0661
     71 H           4.6018    5.9066    0.0000 H       1  UNL1        0.0661
     72 H           4.3847    5.0571    0.0000 H       1  UNL1        0.0661
     73 H           7.4422   -2.7604    0.0000 H       1  UNL1        0.0661
     74 H           8.0622   -3.3804    0.0000 H       1  UNL1        0.0661
     75 H           8.6822   -2.7604    0.0000 H       1  UNL1        0.0661
@<TRIPOS>BOND
     1     1    13    1
     2     1    17    1
     3    15     2    1
     4     2    33    1
     5     3    24    2
     6     4    29    1
     7     4    38    1
     8     5    29    2
     9     6    31    1
    10     6    39    1
    11     7    31    2
    12     8    35   ar
    13     8    37   ar
    14     9    33    2
    15    10    11    1
    16    10    13    1
    17    10    16    1
    18    10    19    1
    19    11    12    1
    20    11    20    1
    21    11    40    1
    22    12    14    1
    23    12    23    1
    24    12    24    1
    25    13    15    1
    26    13    41    1
    27    14    15    1
    28    14    18    1
    29    14    42    1
    30    15    43    1
    31    16    17    1
    32    16    22    2
    33    17    21    1
    34    17    44    1
    35    18    26    1
    36    18    27    1
    37    18    29    1
    38    19    45    1
    39    19    46    1
    40    19    47    1
    41    20    31    1
    42    20    48    1
    43    20    49    1
    44    21    25    1
    45    21    50    1
    46    21    51    1
    47    22    25    1
    48    22    30    1
    49    23    52    1
    50    23    53    1
    51    23    54    1
    52    24    28    1
    53    25    32    1
    54    25    55    1
    55    26    28    2
    56    26    56    1
    57    27    57    1
    58    27    58    1
    59    27    59    1
    60    28    60    1
    61    30    61    1
    62    30    62    1
    63    30    63    1
    64    32    34   ar
    65    32    35   ar
    66    33    36    1
    67    34    37   ar
    68    34    64    1
    69    35    65    1
    70    36    66    1
    71    36    67    1
    72    36    68    1
    73    37    69    1
    74    38    70    1
    75    38    71    1
    76    38    72    1
    77    39    73    1
    78    39    74    1
    79    39    75    1
