@<TRIPOS>MOLECULE
IMPHY017501
 66 65 0 0 0
SMALL
GASTEIGER

@<TRIPOS>ATOM
      1 O           6.3301    0.0000    0.0000 O.3     1  UNL1       -0.4643
      2 O           7.1962   -1.5000    0.0000 O.2     1  UNL1       -0.2509
      3 C          14.1244   -0.5000    0.0000 C.3     1  UNL1       -0.0531
      4 C          13.2583   -0.0000    0.0000 C.3     1  UNL1       -0.0531
      5 C          14.9904   -0.0000    0.0000 C.3     1  UNL1       -0.0531
      6 C          12.3923   -0.5000    0.0000 C.3     1  UNL1       -0.0531
      7 C          15.8564   -0.5000    0.0000 C.3     1  UNL1       -0.0531
      8 C          11.5263   -0.0000    0.0000 C.3     1  UNL1       -0.0531
      9 C          16.7224   -0.0000    0.0000 C.3     1  UNL1       -0.0531
     10 C          10.6603   -0.5000    0.0000 C.3     1  UNL1       -0.0530
     11 C          17.5885   -0.5000    0.0000 C.3     1  UNL1       -0.0531
     12 C           9.7942    0.0000    0.0000 C.3     1  UNL1       -0.0526
     13 C          18.4545   -0.0000    0.0000 C.3     1  UNL1       -0.0533
     14 C           8.9282   -0.5000    0.0000 C.3     1  UNL1       -0.0430
     15 C          19.3205   -0.5000    0.0000 C.3     1  UNL1       -0.0559
     16 C           8.0622    0.0000    0.0000 C.3     1  UNL1        0.0449
     17 C          20.1865   -0.0000    0.0000 C.3     1  UNL1       -0.0653
     18 C           7.1962   -0.5000    0.0000 C.2     1  UNL1        0.3071
     19 C           5.4641   -0.5000    0.0000 C.3     1  UNL1        0.0959
     20 C           4.5981    0.0000    0.0000 C.3     1  UNL1       -0.0003
     21 C           3.7320   -0.5000    0.0000 C.2     1  UNL1       -0.0847
     22 C           2.8660   -0.0000    0.0000 C.2     1  UNL1       -0.0881
     23 C           2.8660    1.0000    0.0000 C.3     1  UNL1       -0.0376
     24 C           2.0000    1.5000    0.0000 C.3     1  UNL1       -0.0618
     25 H          13.7258   -0.9749    0.0000 H       1  UNL1        0.0265
     26 H          14.5229   -0.9749    0.0000 H       1  UNL1        0.0265
     27 H          13.6569    0.4749    0.0000 H       1  UNL1        0.0265
     28 H          12.8598    0.4749    0.0000 H       1  UNL1        0.0265
     29 H          15.3889    0.4749    0.0000 H       1  UNL1        0.0265
     30 H          14.5919    0.4749    0.0000 H       1  UNL1        0.0265
     31 H          11.9938   -0.9749    0.0000 H       1  UNL1        0.0265
     32 H          12.7908   -0.9749    0.0000 H       1  UNL1        0.0265
     33 H          15.4579   -0.9749    0.0000 H       1  UNL1        0.0265
     34 H          16.2549   -0.9749    0.0000 H       1  UNL1        0.0265
     35 H          11.9248    0.4749    0.0000 H       1  UNL1        0.0265
     36 H          11.1278    0.4749    0.0000 H       1  UNL1        0.0265
     37 H          17.1210    0.4749    0.0000 H       1  UNL1        0.0265
     38 H          16.3239    0.4749    0.0000 H       1  UNL1        0.0265
     39 H          10.2617   -0.9749    0.0000 H       1  UNL1        0.0265
     40 H          11.0588   -0.9749    0.0000 H       1  UNL1        0.0265
     41 H          17.1899   -0.9749    0.0000 H       1  UNL1        0.0265
     42 H          17.9870   -0.9749    0.0000 H       1  UNL1        0.0265
     43 H          10.1928    0.4749    0.0000 H       1  UNL1        0.0265
     44 H           9.3957    0.4749    0.0000 H       1  UNL1        0.0265
     45 H          18.8530    0.4749    0.0000 H       1  UNL1        0.0265
     46 H          18.0560    0.4749    0.0000 H       1  UNL1        0.0265
     47 H           8.5297   -0.9749    0.0000 H       1  UNL1        0.0270
     48 H           9.3267   -0.9749    0.0000 H       1  UNL1        0.0270
     49 H          18.9220   -0.9749    0.0000 H       1  UNL1        0.0263
     50 H          19.7190   -0.9749    0.0000 H       1  UNL1        0.0263
     51 H           8.4607    0.4749    0.0000 H       1  UNL1        0.0377
     52 H           7.6636    0.4749    0.0000 H       1  UNL1        0.0377
     53 H          20.4965   -0.5369    0.0000 H       1  UNL1        0.0230
     54 H          20.7235    0.3100    0.0000 H       1  UNL1        0.0230
     55 H          19.8765    0.5369    0.0000 H       1  UNL1        0.0230
     56 H           5.0656   -0.9749    0.0000 H       1  UNL1        0.0700
     57 H           5.8626   -0.9749    0.0000 H       1  UNL1        0.0700
     58 H           4.9966    0.4749    0.0000 H       1  UNL1        0.0340
     59 H           4.1996    0.4749    0.0000 H       1  UNL1        0.0340
     60 H           3.7320   -1.1200    0.0000 H       1  UNL1        0.0570
     61 H           2.3291   -0.3100    0.0000 H       1  UNL1        0.0569
     62 H           3.4766    0.8923    0.0000 H       1  UNL1        0.0305
     63 H           3.0781    1.5826    0.0000 H       1  UNL1        0.0305
     64 H           2.3100    2.0369    0.0000 H       1  UNL1        0.0233
     65 H           1.4631    1.8100    0.0000 H       1  UNL1        0.0233
     66 H           1.6900    0.9631    0.0000 H       1  UNL1        0.0233
@<TRIPOS>BOND
     1     1    18    1
     2     1    19    1
     3     2    18    2
     4     3     4    1
     5     3     5    1
     6     3    25    1
     7     3    26    1
     8     4     6    1
     9     4    27    1
    10     4    28    1
    11     5     7    1
    12     5    29    1
    13     5    30    1
    14     6     8    1
    15     6    31    1
    16     6    32    1
    17     7     9    1
    18     7    33    1
    19     7    34    1
    20     8    10    1
    21     8    35    1
    22     8    36    1
    23     9    11    1
    24     9    37    1
    25     9    38    1
    26    10    12    1
    27    10    39    1
    28    10    40    1
    29    11    13    1
    30    11    41    1
    31    11    42    1
    32    12    14    1
    33    12    43    1
    34    12    44    1
    35    13    15    1
    36    13    45    1
    37    13    46    1
    38    14    16    1
    39    14    47    1
    40    14    48    1
    41    15    17    1
    42    15    49    1
    43    15    50    1
    44    16    18    1
    45    16    51    1
    46    16    52    1
    47    17    53    1
    48    17    54    1
    49    17    55    1
    50    19    20    1
    51    19    56    1
    52    19    57    1
    53    20    21    1
    54    20    58    1
    55    20    59    1
    56    21    22    2
    57    21    60    1
    58    22    23    1
    59    22    61    1
    60    23    24    1
    61    23    62    1
    62    23    63    1
    63    24    64    1
    64    24    65    1
    65    24    66    1
