@<TRIPOS>MOLECULE
IMPHY013899
 82 88 0 0 0
SMALL
GASTEIGER

@<TRIPOS>ATOM
      1 O           7.5289   -1.1922    0.0000 O.3     1  UNL1       -0.4483
      2 O           5.9765    0.5732    0.0000 O.3     1  UNL1       -0.4913
      3 O           7.8274   -0.7531    0.0000 O.3     1  UNL1       -0.5009
      4 O           9.5481   -0.7903    0.0000 O.3     1  UNL1       -0.4914
      5 O           2.7289    2.4396    0.0000 O.3     1  UNL1       -0.4523
      6 O           3.0893    1.4184    0.0000 O.3     1  UNL1       -0.4914
      7 N           4.1925   -3.4752    0.0000 N.3     1  UNL1       -0.2978
      8 N           7.6574    3.4842    0.0000 N.3     1  UNL1       -0.3087
      9 C           4.2005   -2.4336    0.0000 C.3     1  UNL1        0.0398
     10 C           5.1105   -1.9268    0.0000 C.ar    1  UNL1       -0.0196
     11 C           5.9765   -2.4268    0.0000 C.ar    1  UNL1        0.0047
     12 C           5.0946   -3.9960    0.0000 C.3     1  UNL1        0.0033
     13 C           5.9926   -3.4683    0.0000 C.3     1  UNL1       -0.0109
     14 C           3.2911   -2.0052    0.0000 C.3     1  UNL1       -0.0079
     15 C           7.2080    2.5385    0.0000 C.3     1  UNL1        0.0372
     16 C           7.7657    1.7021    0.0000 C.ar    1  UNL1       -0.0233
     17 C           6.8426   -1.9268    0.0000 C.ar    1  UNL1        0.1770
     18 C           5.1105   -0.9268    0.0000 C.ar    1  UNL1       -0.0111
     19 C           8.8116    1.7536    0.0000 C.ar    1  UNL1       -0.0378
     20 C           9.2828    2.6887    0.0000 C.3     1  UNL1       -0.0147
     21 C           3.3246   -3.9719    0.0000 C.3     1  UNL1       -0.0122
     22 C           8.7018    3.5598    0.0000 C.3     1  UNL1        0.0004
     23 C           6.4064    3.1450    0.0000 C.3     1  UNL1       -0.0080
     24 C           2.5731   -1.3017    0.0000 C.ar    1  UNL1       -0.0453
     25 C           6.8426   -0.9268    0.0000 C.ar    1  UNL1        0.2019
     26 C           5.9765   -0.4268    0.0000 C.ar    1  UNL1        0.1653
     27 C           8.0176    0.7290    0.0000 C.ar    1  UNL1       -0.0107
     28 C           7.9356   -0.2729    0.0000 C.ar    1  UNL1        0.1703
     29 C           9.2944    0.8841    0.0000 C.ar    1  UNL1       -0.0128
     30 C           8.8998   -0.0289    0.0000 C.ar    1  UNL1        0.1624
     31 C           5.4499    3.4544    0.0000 C.ar    1  UNL1       -0.0419
     32 C           2.7612   -0.3187    0.0000 C.ar    1  UNL1       -0.0550
     33 C           2.1262   -0.4013    0.0000 C.ar    1  UNL1       -0.0550
     34 C           4.4449    3.4322    0.0000 C.ar    1  UNL1       -0.0124
     35 C           5.5308    2.4582    0.0000 C.ar    1  UNL1       -0.0548
     36 C           2.6356    0.6742    0.0000 C.ar    1  UNL1       -0.0191
     37 C           2.0000    0.5961    0.0000 C.ar    1  UNL1       -0.0191
     38 C           2.2087    1.5794    0.0000 C.ar    1  UNL1        0.1286
     39 C           3.5030    3.0809    0.0000 C.ar    1  UNL1        0.1701
     40 C           4.7518    1.8321    0.0000 C.ar    1  UNL1       -0.0160
     41 C           3.7964    2.1255    0.0000 C.ar    1  UNL1        0.1621
     42 C           5.1105    1.0732    0.0000 C.3     1  UNL1        0.0790
     43 C          10.5316   -0.6095    0.0000 C.3     1  UNL1        0.0790
     44 C           3.3482    0.4525    0.0000 C.3     1  UNL1        0.0790
     45 H           3.4810   -2.8861    0.0000 H       1  UNL1        0.0515
     46 H           4.6973   -4.4720    0.0000 H       1  UNL1        0.0430
     47 H           5.4955   -4.4689    0.0000 H       1  UNL1        0.0430
     48 H           6.2106   -4.0487    0.0000 H       1  UNL1        0.0327
     49 H           6.6018   -3.3528    0.0000 H       1  UNL1        0.0327
     50 H           2.7162   -2.2373    0.0000 H       1  UNL1        0.0332
     51 H           3.6452   -1.4962    0.0000 H       1  UNL1        0.0332
     52 H           6.8432    1.7708    0.0000 H       1  UNL1        0.0513
     53 H           4.5736   -0.6168    0.0000 H       1  UNL1        0.0659
     54 H           9.7805    2.3190    0.0000 H       1  UNL1        0.0326
     55 H           9.7321    3.1159    0.0000 H       1  UNL1        0.0326
     56 H           3.0166   -3.4337    0.0000 H       1  UNL1        0.0391
     57 H           2.7864   -4.2798    0.0000 H       1  UNL1        0.0391
     58 H           3.6325   -4.5100    0.0000 H       1  UNL1        0.0391
     59 H           9.2689    3.8105    0.0000 H       1  UNL1        0.0427
     60 H           8.5519    4.1614    0.0000 H       1  UNL1        0.0427
     61 H           6.9471    3.4483    0.0000 H       1  UNL1        0.0332
     62 H           6.1199    2.5952    0.0000 H       1  UNL1        0.0332
     63 H           7.3075    3.9960    0.0000 H       1  UNL1        0.1225
     64 H           8.6353    0.7821    0.0000 H       1  UNL1        0.0659
     65 H           9.9137    0.9147    0.0000 H       1  UNL1        0.0658
     66 H           3.3809   -0.3383    0.0000 H       1  UNL1        0.0621
     67 H           1.5326   -0.5805    0.0000 H       1  UNL1        0.0621
     68 H           4.3281    4.0411    0.0000 H       1  UNL1        0.0658
     69 H           6.1004    2.2132    0.0000 H       1  UNL1        0.0621
     70 H           3.2309    0.8475    0.0000 H       1  UNL1        0.0654
     71 H           1.3805    0.6219    0.0000 H       1  UNL1        0.0654
     72 H           8.2259   -1.2281    0.0000 H       1  UNL1        0.2924
     73 H           4.8686    1.2232    0.0000 H       1  UNL1        0.0655
     74 H           5.4205    1.6102    0.0000 H       1  UNL1        0.0660
     75 H           4.5736    1.3832    0.0000 H       1  UNL1        0.0660
     76 H           4.8005    0.5363    0.0000 H       1  UNL1        0.0660
     77 H          10.6437   -1.2193    0.0000 H       1  UNL1        0.0660
     78 H          11.1414   -0.4975    0.0000 H       1  UNL1        0.0660
     79 H          10.4196    0.0002    0.0000 H       1  UNL1        0.0660
     80 H           2.7493    0.2920    0.0000 H       1  UNL1        0.0660
     81 H           3.5087   -0.1464    0.0000 H       1  UNL1        0.0660
     82 H           3.9471    0.6129    0.0000 H       1  UNL1        0.0660
@<TRIPOS>BOND
     1     1    17    1
     2     1    28    1
     3     2    26    1
     4     2    42    1
     5     3    25    1
     6     3    72    1
     7     4    30    1
     8     4    43    1
     9     5    38    1
    10     5    39    1
    11     6    41    1
    12     6    44    1
    13     7     9    1
    14     7    12    1
    15     7    21    1
    16     8    15    1
    17     8    22    1
    18     8    63    1
    19     9    10    1
    20     9    14    1
    21     9    45    1
    22    10    11   ar
    23    10    18   ar
    24    11    13    1
    25    11    17   ar
    26    12    13    1
    27    12    46    1
    28    12    47    1
    29    13    48    1
    30    13    49    1
    31    14    24    1
    32    14    50    1
    33    14    51    1
    34    15    16    1
    35    15    23    1
    36    15    52    1
    37    16    19   ar
    38    16    27   ar
    39    17    25   ar
    40    18    26   ar
    41    18    53    1
    42    19    20    1
    43    19    29   ar
    44    20    22    1
    45    20    54    1
    46    20    55    1
    47    21    56    1
    48    21    57    1
    49    21    58    1
    50    22    59    1
    51    22    60    1
    52    23    31    1
    53    23    61    1
    54    23    62    1
    55    24    32   ar
    56    24    33   ar
    57    25    26   ar
    58    27    28   ar
    59    27    64    1
    60    28    30   ar
    61    29    30   ar
    62    29    65    1
    63    31    34   ar
    64    31    35   ar
    65    32    36   ar
    66    32    66    1
    67    33    37   ar
    68    33    67    1
    69    34    39   ar
    70    34    68    1
    71    35    40   ar
    72    35    69    1
    73    36    38   ar
    74    36    70    1
    75    37    38   ar
    76    37    71    1
    77    39    41   ar
    78    40    41   ar
    79    40    73    1
    80    42    74    1
    81    42    75    1
    82    42    76    1
    83    43    77    1
    84    43    78    1
    85    43    79    1
    86    44    80    1
    87    44    81    1
    88    44    82    1
