@<TRIPOS>MOLECULE
IMPHY010354
 47 48 0 0 0
SMALL
GASTEIGER

@<TRIPOS>ATOM
      1 O           7.4190   -3.1371    0.0000 O.co2   1  UNL1       -0.7743
      2 O           8.6759    0.1181    0.0000 O.3     1  UNL1       -0.3857
      3 O           5.1808    0.3309    0.0000 O.3     1  UNL1       -0.4579
      4 O           3.6857    0.5117    0.0000 O.3     1  UNL1       -0.3752
      5 O           2.6064    2.6488    0.0000 O.3     1  UNL1       -0.3886
      6 O           5.5409    2.0251    0.0000 O.2     1  UNL1       -0.2475
      7 N           7.4190   -2.1371    0.0000 N.3     1  UNL1        0.2272
      8 C           7.4190   -1.1371    0.0000 C.3     1  UNL1        0.0305
      9 C           8.3652   -0.8324    0.0000 C.3     1  UNL1        0.1065
     10 C           8.3652   -2.4418    0.0000 C.3     1  UNL1       -0.0291
     11 C           8.9488   -1.6371    0.0000 C.3     1  UNL1        0.0191
     12 C           6.4680   -2.4461    0.0000 C.3     1  UNL1       -0.0126
     13 C           6.4680   -0.8281    0.0000 C.2     1  UNL1        0.0183
     14 C           5.8802   -1.6371    0.0000 C.2     1  UNL1       -0.0317
     15 C           6.1589    0.1230    0.0000 C.3     1  UNL1        0.1190
     16 C           3.8936    1.4898    0.0000 C.3     1  UNL1        0.1901
     17 C           4.1015    2.4680    0.0000 C.3     1  UNL1       -0.0048
     18 C           4.8718    1.2819    0.0000 C.2     1  UNL1        0.3423
     19 C           2.9155    1.6978    0.0000 C.3     1  UNL1        0.0918
     20 C           3.3584    3.1371    0.0000 C.3     1  UNL1       -0.0594
     21 C           5.0526    2.7770    0.0000 C.3     1  UNL1       -0.0594
     22 C           2.2463    0.9546    0.0000 C.3     1  UNL1       -0.0357
     23 H           7.4201   -0.2871    0.0000 H       1  UNL1        0.0927
     24 H           8.9777   -0.7362    0.0000 H       1  UNL1        0.0655
     25 H           8.1142   -3.0088    0.0000 H       1  UNL1        0.0814
     26 H           8.9026   -2.7511    0.0000 H       1  UNL1        0.0814
     27 H           9.4097   -2.0518    0.0000 H       1  UNL1        0.0344
     28 H           9.4097   -1.2224    0.0000 H       1  UNL1        0.0344
     29 H           5.9310   -2.7561    0.0000 H       1  UNL1        0.0861
     30 H           6.7201   -3.0125    0.0000 H       1  UNL1        0.0861
     31 H           5.2602   -1.6371    0.0000 H       1  UNL1        0.0627
     32 H           6.7729    0.2092    0.0000 H       1  UNL1        0.0747
     33 H           6.1806    0.7426    0.0000 H       1  UNL1        0.0747
     34 H           9.2826    0.2460    0.0000 H       1  UNL1        0.2101
     35 H           3.5119    2.2764    0.0000 H       1  UNL1        0.0329
     36 H           2.3090    1.8266    0.0000 H       1  UNL1        0.0625
     37 H           3.7732    3.5979    0.0000 H       1  UNL1        0.0233
     38 H           2.8976    3.5520    0.0000 H       1  UNL1        0.0233
     39 H           2.9435    2.6764    0.0000 H       1  UNL1        0.0233
     40 H           5.2442    2.1874    0.0000 H       1  UNL1        0.0233
     41 H           5.6422    2.9686    0.0000 H       1  UNL1        0.0233
     42 H           4.8610    3.3667    0.0000 H       1  UNL1        0.0233
     43 H           1.7856    1.3695    0.0000 H       1  UNL1        0.0255
     44 H           1.8315    0.4939    0.0000 H       1  UNL1        0.0255
     45 H           2.7071    0.5397    0.0000 H       1  UNL1        0.0255
     46 H           3.0960    0.3201    0.0000 H       1  UNL1        0.2110
     47 H           2.0000    2.7777    0.0000 H       1  UNL1        0.2099
@<TRIPOS>UNITY_ATOM_ATTR
1 1
charge -1
7 1
charge 1
@<TRIPOS>BOND
     1     1     7    1
     2     9     2    1
     3     2    34    1
     4     3    15    1
     5     3    18    1
     6    16     4    1
     7     4    46    1
     8    19     5    1
     9     5    47    1
    10     6    18    2
    11     7     8    1
    12     7    10    1
    13     7    12    1
    14     8     9    1
    15     8    13    1
    16     8    23    1
    17     9    11    1
    18     9    24    1
    19    10    11    1
    20    10    25    1
    21    10    26    1
    22    11    27    1
    23    11    28    1
    24    12    14    1
    25    12    29    1
    26    12    30    1
    27    13    14    2
    28    13    15    1
    29    14    31    1
    30    15    32    1
    31    15    33    1
    32    16    17    1
    33    16    18    1
    34    16    19    1
    35    17    20    1
    36    17    21    1
    37    17    35    1
    38    19    22    1
    39    19    36    1
    40    20    37    1
    41    20    38    1
    42    20    39    1
    43    21    40    1
    44    21    41    1
    45    21    42    1
    46    22    43    1
    47    22    44    1
    48    22    45    1
