@<TRIPOS>MOLECULE
IMPHY003895
 55 55 0 0 0
SMALL
GASTEIGER

@<TRIPOS>ATOM
      1 O           2.6200    3.0311    0.0000 O.3     1  UNL1       -0.3875
      2 C           4.1200    2.1651    0.0000 C.3     1  UNL1       -0.0087
      3 C           4.6200    3.0311    0.0000 C.3     1  UNL1       -0.0412
      4 C           4.6200    1.2990    0.0000 C.3     1  UNL1       -0.0437
      5 C           3.1200    2.1651    0.0000 C.3     1  UNL1        0.0766
      6 C           4.1200    0.4330    0.0000 C.3     1  UNL1       -0.0317
      7 C           5.6200    3.0311    0.0000 C.3     1  UNL1       -0.0623
      8 C           4.1200    3.8971    0.0000 C.3     1  UNL1       -0.0623
      9 C           2.6200    1.2990    0.0000 C.2     1  UNL1       -0.0566
     10 C           4.6200   -0.4330    0.0000 C.2     1  UNL1       -0.0765
     11 C           3.1200    0.4330    0.0000 C.2     1  UNL1       -0.0738
     12 C           2.6200   -0.4330    0.0000 C.3     1  UNL1       -0.0285
     13 C           4.1200   -1.2990    0.0000 C.2     1  UNL1       -0.0847
     14 C           4.6200   -2.1651    0.0000 C.3     1  UNL1       -0.0308
     15 C           3.1200   -1.2990    0.0000 C.3     1  UNL1       -0.0308
     16 C           5.6200   -0.4330    0.0000 C.3     1  UNL1       -0.0438
     17 C           4.1200   -3.0311    0.0000 C.3     1  UNL1       -0.0286
     18 C           3.5796    0.8187    0.0000 C.3     1  UNL1       -0.0437
     19 C           3.1200   -3.0311    0.0000 C.2     1  UNL1       -0.0762
     20 C           2.6200   -2.1651    0.0000 C.2     1  UNL1       -0.0847
     21 C           2.6200   -3.8971    0.0000 C.3     1  UNL1       -0.0438
     22 H           4.9700    2.1651    0.0000 H       1  UNL1        0.0331
     23 H           4.9300    3.5680    0.0000 H       1  UNL1        0.0299
     24 H           5.0950    0.9005    0.0000 H       1  UNL1        0.0272
     25 H           5.0950    1.6976    0.0000 H       1  UNL1        0.0272
     26 H           3.5450    2.9012    0.0000 H       1  UNL1        0.0640
     27 H           3.6450    0.8315    0.0000 H       1  UNL1        0.0310
     28 H           3.6450    0.0345    0.0000 H       1  UNL1        0.0310
     29 H           5.6200    2.4111    0.0000 H       1  UNL1        0.0232
     30 H           6.2400    3.0311    0.0000 H       1  UNL1        0.0232
     31 H           5.6200    3.6511    0.0000 H       1  UNL1        0.0232
     32 H           4.6569    4.2071    0.0000 H       1  UNL1        0.0232
     33 H           3.8100    4.4340    0.0000 H       1  UNL1        0.0232
     34 H           3.5831    3.5871    0.0000 H       1  UNL1        0.0232
     35 H           2.0000    1.2990    0.0000 H       1  UNL1        0.0597
     36 H           2.0000    3.0311    0.0000 H       1  UNL1        0.2102
     37 H           2.1450   -0.0345    0.0000 H       1  UNL1        0.0313
     38 H           2.1450   -0.8315    0.0000 H       1  UNL1        0.0313
     39 H           3.6449   -1.6974    0.0000 H       1  UNL1        0.0572
     40 H           5.0950   -2.5636    0.0000 H       1  UNL1        0.0310
     41 H           5.0950   -1.7665    0.0000 H       1  UNL1        0.0310
     42 H           3.5950   -1.6976    0.0000 H       1  UNL1        0.0310
     43 H           3.5950   -0.9005    0.0000 H       1  UNL1        0.0310
     44 H           5.6200   -1.0530    0.0000 H       1  UNL1        0.0274
     45 H           6.2400   -0.4330    0.0000 H       1  UNL1        0.0274
     46 H           5.6200    0.1870    0.0000 H       1  UNL1        0.0274
     47 H           4.0123   -3.6417    0.0000 H       1  UNL1        0.0313
     48 H           4.7026   -3.2431    0.0000 H       1  UNL1        0.0313
     49 H           3.9782    0.3437    0.0000 H       1  UNL1        0.0274
     50 H           4.0546    1.2172    0.0000 H       1  UNL1        0.0274
     51 H           3.1811    1.2936    0.0000 H       1  UNL1        0.0274
     52 H           2.0000   -2.1651    0.0000 H       1  UNL1        0.0572
     53 H           2.0831   -3.5871    0.0000 H       1  UNL1        0.0274
     54 H           2.3100   -4.4340    0.0000 H       1  UNL1        0.0274
     55 H           3.1569   -4.2071    0.0000 H       1  UNL1        0.0274
@<TRIPOS>BOND
     1     1     5    1
     2     1    36    1
     3     2     3    1
     4     2     4    1
     5     2     5    1
     6     2    22    1
     7     3     7    1
     8     3     8    1
     9     3    23    1
    10     4     6    1
    11     4    24    1
    12     4    25    1
    13     5     9    1
    14     5    26    1
    15     6    10    1
    16     6    27    1
    17     6    28    1
    18     7    29    1
    19     7    30    1
    20     7    31    1
    21     8    32    1
    22     8    33    1
    23     8    34    1
    24     9    11    2
    25     9    35    1
    26    10    13    2
    27    10    16    1
    28    11    12    1
    29    11    18    1
    30    12    15    1
    31    12    37    1
    32    12    38    1
    33    13    14    1
    34    13    39    1
    35    14    17    1
    36    14    40    1
    37    14    41    1
    38    15    20    1
    39    15    42    1
    40    15    43    1
    41    16    44    1
    42    16    45    1
    43    16    46    1
    44    17    19    1
    45    17    47    1
    46    17    48    1
    47    18    49    1
    48    18    50    1
    49    18    51    1
    50    19    20    2
    51    19    21    1
    52    20    52    1
    53    21    53    1
    54    21    54    1
    55    21    55    1
