@<TRIPOS>MOLECULE
IMPHY010662
 32 34 0 0 0
SMALL
GASTEIGER

@<TRIPOS>ATOM
      1 O           6.2514   -2.0630    0.0000 O.2     1  UNL1       -0.4184
      2 O           2.7443    0.0989    0.0000 O.3     1  UNL1       -0.4675
      3 O           4.1285   -2.8183    0.0000 O.2     1  UNL1       -0.2888
      4 O           5.3636    1.4684    0.0000 O.3     1  UNL1       -0.5028
      5 O           3.9010    1.3880    0.0000 O.2     1  UNL1       -0.2502
      6 O           7.9834   -2.0630    0.0000 O.2     1  UNL1       -0.2445
      7 O           7.1295    2.5062    0.0000 O.3     1  UNL1       -0.5009
      8 O           8.9034    1.4821    0.0000 O.3     1  UNL1       -0.5032
      9 C           4.4391   -0.2583    0.0000 C.3     1  UNL1        0.0927
     10 C           5.3853   -0.5630    0.0000 C.ar    1  UNL1        0.0241
     11 C           3.8555   -1.0630    0.0000 C.3     1  UNL1        0.0307
     12 C           5.3853   -1.5630    0.0000 C.ar    1  UNL1        0.1788
     13 C           6.2514   -0.0630    0.0000 C.ar    1  UNL1        0.0419
     14 C           4.4391   -1.8678    0.0000 C.2     1  UNL1        0.1994
     15 C           7.1174   -0.5630    0.0000 C.ar    1  UNL1        0.0741
     16 C           3.6948    0.4095    0.0000 C.2     1  UNL1        0.3149
     17 C           6.2353    0.9785    0.0000 C.ar    1  UNL1        0.1705
     18 C           7.1174   -1.5630    0.0000 C.ar    1  UNL1        0.3454
     19 C           8.0274   -0.0562    0.0000 C.ar    1  UNL1       -0.0017
     20 C           7.1334    1.5062    0.0000 C.ar    1  UNL1        0.2012
     21 C           8.0354    0.9854    0.0000 C.ar    1  UNL1        0.1628
     22 C           2.0000    0.7667    0.0000 C.3     1  UNL1        0.0817
     23 H           4.7480    0.2793    0.0000 H       1  UNL1        0.0468
     24 H           3.3946   -0.6483    0.0000 H       1  UNL1        0.0357
     25 H           3.3946   -1.4778    0.0000 H       1  UNL1        0.0357
     26 H           8.5607   -0.3724    0.0000 H       1  UNL1        0.0664
     27 H           5.3564    2.0884    0.0000 H       1  UNL1        0.2923
     28 H           2.4141    1.2282    0.0000 H       1  UNL1        0.0661
     29 H           1.5385    1.1808    0.0000 H       1  UNL1        0.0661
     30 H           1.5859    0.3053    0.0000 H       1  UNL1        0.0661
     31 H           7.6652    2.8183    0.0000 H       1  UNL1        0.2924
     32 H           9.4391    1.1700    0.0000 H       1  UNL1        0.2923
@<TRIPOS>BOND
     1     1    12   ar
     2     1    18   ar
     3     2    16    1
     4     2    22    1
     5     3    14    2
     6     4    17    1
     7     4    27    1
     8     5    16    2
     9     6    18    2
    10     7    20    1
    11     7    31    1
    12     8    21    1
    13     8    32    1
    14     9    10    1
    15     9    11    1
    16     9    16    1
    17     9    23    1
    18    10    12   ar
    19    10    13   ar
    20    11    14    1
    21    11    24    1
    22    11    25    1
    23    12    14    1
    24    13    15   ar
    25    13    17   ar
    26    15    18   ar
    27    15    19   ar
    28    17    20   ar
    29    19    21   ar
    30    19    26    1
    31    20    21   ar
    32    22    28    1
    33    22    29    1
    34    22    30    1
