@<TRIPOS>MOLECULE
IMPHY012553
 46 51 0 0 0
SMALL
GASTEIGER

@<TRIPOS>ATOM
      1 O           2.9180    0.6441    0.0000 O.3     1  UNL1       -0.4830
      2 O           2.0000   -1.9043    0.0000 O.3     1  UNL1       -0.4879
      3 O           4.6744    3.7983    0.0000 O.3     1  UNL1       -0.4815
      4 O           5.5161   -0.8559    0.0000 O.2     1  UNL1       -0.2912
      5 O           5.5740   -4.2205    0.0000 O.3     1  UNL1       -0.4526
      6 O           4.0684   -5.1052    0.0000 O.3     1  UNL1       -0.4525
      7 C           3.7841   -0.8559    0.0000 C.3     1  UNL1        0.0908
      8 C           2.9180   -0.3559    0.0000 C.3     1  UNL1        0.1479
      9 C           3.8001   -1.8974    0.0000 C.ar    1  UNL1        0.0122
     10 C           2.0080   -0.8627    0.0000 C.3     1  UNL1        0.1273
     11 C           4.6501   -0.3559    0.0000 C.2     1  UNL1        0.1778
     12 C           3.7841    1.1441    0.0000 C.ar    1  UNL1        0.1422
     13 C           4.6501    0.6441    0.0000 C.ar    1  UNL1        0.0606
     14 C           2.9021   -2.4252    0.0000 C.ar    1  UNL1        0.1283
     15 C           3.7680    2.1856    0.0000 C.ar    1  UNL1        0.0588
     16 C           4.7520   -2.4180    0.0000 C.ar    1  UNL1       -0.0087
     17 C           3.7348    4.3408    0.0000 C.3     1  UNL1        0.1235
     18 C           4.6660    2.7134    0.0000 C.ar    1  UNL1        0.1324
     19 C           5.5601    1.1510    0.0000 C.ar    1  UNL1       -0.0442
     20 C           2.8937   -3.5101    0.0000 C.ar    1  UNL1        0.0259
     21 C           4.7688   -3.5029    0.0000 C.ar    1  UNL1        0.1667
     22 C           2.8161    2.7062    0.0000 C.2     1  UNL1       -0.0478
     23 C           3.8334   -4.0526    0.0000 C.ar    1  UNL1        0.1697
     24 C           5.5681    2.1926    0.0000 C.ar    1  UNL1       -0.0184
     25 C           2.7993    3.7911    0.0000 C.2     1  UNL1       -0.0408
     26 C           3.2314    5.2049    0.0000 C.3     1  UNL1       -0.0215
     27 C           4.2314    5.2088    0.0000 C.3     1  UNL1       -0.0215
     28 C           5.1420   -5.2088    0.0000 C.3     1  UNL1        0.2332
     29 H           4.5234   -1.2752    0.0000 H       1  UNL1        0.0468
     30 H           2.1852    0.0748    0.0000 H       1  UNL1        0.0778
     31 H           1.8035   -0.2774    0.0000 H       1  UNL1        0.0734
     32 H           1.3964   -0.9641    0.0000 H       1  UNL1        0.0734
     33 H           5.2829   -2.0977    0.0000 H       1  UNL1        0.0659
     34 H           6.0934    0.8348    0.0000 H       1  UNL1        0.0627
     35 H           2.3556   -3.8180    0.0000 H       1  UNL1        0.0692
     36 H           2.2852    2.3859    0.0000 H       1  UNL1        0.0624
     37 H           6.1062    2.5005    0.0000 H       1  UNL1        0.0654
     38 H           2.2589    4.0949    0.0000 H       1  UNL1        0.0611
     39 H           3.7672    5.5170    0.0000 H       1  UNL1        0.0271
     40 H           2.9194    5.7407    0.0000 H       1  UNL1        0.0271
     41 H           2.6957    4.8929    0.0000 H       1  UNL1        0.0271
     42 H           4.7696    4.9008    0.0000 H       1  UNL1        0.0271
     43 H           4.5394    5.7469    0.0000 H       1  UNL1        0.0271
     44 H           3.6933    5.5167    0.0000 H       1  UNL1        0.0271
     45 H           5.0180   -5.8162    0.0000 H       1  UNL1        0.1166
     46 H           5.7331   -5.3960    0.0000 H       1  UNL1        0.1166
@<TRIPOS>BOND
     1     1     8    1
     2     1    12    1
     3     2    10    1
     4     2    14    1
     5     3    17    1
     6     3    18    1
     7     4    11    2
     8     5    21    1
     9     5    28    1
    10     6    23    1
    11     6    28    1
    12     7     8    1
    13     7     9    1
    14     7    11    1
    15     7    29    1
    16     8    10    1
    17     8    30    1
    18     9    14   ar
    19     9    16   ar
    20    10    31    1
    21    10    32    1
    22    11    13    1
    23    12    13   ar
    24    12    15   ar
    25    13    19   ar
    26    14    20   ar
    27    15    18   ar
    28    15    22    1
    29    16    21   ar
    30    16    33    1
    31    17    25    1
    32    17    26    1
    33    17    27    1
    34    18    24   ar
    35    19    24   ar
    36    19    34    1
    37    20    23   ar
    38    20    35    1
    39    21    23   ar
    40    22    25    2
    41    22    36    1
    42    24    37    1
    43    25    38    1
    44    26    39    1
    45    26    40    1
    46    26    41    1
    47    27    42    1
    48    27    43    1
    49    27    44    1
    50    28    45    1
    51    28    46    1
