@<TRIPOS>MOLECULE
IMPHY010018
 82 86 0 0 0
SMALL
GASTEIGER

@<TRIPOS>ATOM
      1 O           2.5381   -3.2456    0.0000 O.3     1  UNL1       -0.3912
      2 O          12.0985    1.6809    0.0000 O.3     1  UNL1       -0.3875
      3 C           6.0682   -1.2214    0.0000 C.3     1  UNL1       -0.0194
      4 C           5.2022   -1.7214    0.0000 C.3     1  UNL1       -0.0193
      5 C           5.2020   -0.7210    0.0000 C.3     1  UNL1       -0.0401
      6 C           6.9343   -1.7214    0.0000 C.3     1  UNL1       -0.0289
      7 C           5.2022   -2.7214    0.0000 C.3     1  UNL1       -0.0273
      8 C           7.8443   -1.2146    0.0000 C.3     1  UNL1       -0.0231
      9 C           6.0522   -0.1799    0.0000 C.3     1  UNL1       -0.0460
     10 C           7.8523   -0.1730    0.0000 C.3     1  UNL1       -0.0233
     11 C           4.3083   -1.1868    0.0000 C.3     1  UNL1       -0.0442
     12 C           6.9343   -2.7214    0.0000 C.3     1  UNL1       -0.0489
     13 C           6.0682   -3.2214    0.0000 C.3     1  UNL1       -0.0488
     14 C           6.9502    0.3478    0.0000 C.3     1  UNL1       -0.0463
     15 C           4.3083   -3.2561    0.0000 C.3     1  UNL1       -0.0056
     16 C           8.8403    0.1368    0.0000 C.3     1  UNL1       -0.0325
     17 C           8.8274   -1.5396    0.0000 C.3     1  UNL1       -0.0466
     18 C           3.4022   -1.7006    0.0000 C.3     1  UNL1       -0.0258
     19 C           3.4022   -2.7423    0.0000 C.3     1  UNL1        0.0606
     20 C           9.4418   -0.7061    0.0000 C.3     1  UNL1       -0.0489
     21 C           7.8366   -2.2146    0.0000 C.3     1  UNL1       -0.0588
     22 C           7.8600    0.8270    0.0000 C.3     1  UNL1       -0.0588
     23 C           9.1583    1.0849    0.0000 C.3     1  UNL1       -0.0404
     24 C           3.8183   -4.1279    0.0000 C.3     1  UNL1       -0.0572
     25 C           4.8183   -4.1163    0.0000 C.3     1  UNL1       -0.0572
     26 C          10.1384    1.2836    0.0000 C.3     1  UNL1       -0.0476
     27 C           8.4962    1.8343    0.0000 C.3     1  UNL1       -0.0621
     28 C          10.4564    2.2317    0.0000 C.3     1  UNL1       -0.0228
     29 C          11.4364    2.4303    0.0000 C.3     1  UNL1        0.0758
     30 C          11.7544    3.3784    0.0000 C.2     1  UNL1       -0.0516
     31 C          12.7345    3.5771    0.0000 C.3     1  UNL1       -0.0416
     32 C          11.0923    4.1279    0.0000 C.2     1  UNL1       -0.0973
     33 H           5.4141   -0.1384    0.0000 H       1  UNL1        0.0276
     34 H           4.5914   -0.6134    0.0000 H       1  UNL1        0.0276
     35 H           7.6671   -2.1521    0.0000 H       1  UNL1        0.0312
     36 H           5.2088   -3.5714    0.0000 H       1  UNL1        0.0312
     37 H           5.8342    0.4005    0.0000 H       1  UNL1        0.0271
     38 H           5.4431   -0.2954    0.0000 H       1  UNL1        0.0271
     39 H           4.7129   -0.7170    0.0000 H       1  UNL1        0.0272
     40 H           3.9147   -0.7078    0.0000 H       1  UNL1        0.0272
     41 H           7.1463   -3.3041    0.0000 H       1  UNL1        0.0268
     42 H           7.5449   -2.6138    0.0000 H       1  UNL1        0.0268
     43 H           5.6697   -3.6964    0.0000 H       1  UNL1        0.0268
     44 H           6.4668   -3.6964    0.0000 H       1  UNL1        0.0268
     45 H           7.3475    0.8238    0.0000 H       1  UNL1        0.0271
     46 H           6.5493    0.8207    0.0000 H       1  UNL1        0.0271
     47 H           9.4536    0.2283    0.0000 H       1  UNL1        0.0309
     48 H           8.5720   -2.1046    0.0000 H       1  UNL1        0.0271
     49 H           9.3624   -1.8530    0.0000 H       1  UNL1        0.0271
     50 H           3.1932   -1.1170    0.0000 H       1  UNL1        0.0290
     51 H           2.7914   -1.8067    0.0000 H       1  UNL1        0.0290
     52 H           2.8647   -2.4333    0.0000 H       1  UNL1        0.0599
     53 H           9.8994   -1.1244    0.0000 H       1  UNL1        0.0268
     54 H           9.9058   -0.2949    0.0000 H       1  UNL1        0.0268
     55 H           7.2166   -2.2098    0.0000 H       1  UNL1        0.0235
     56 H           7.8318   -2.8346    0.0000 H       1  UNL1        0.0235
     57 H           8.4566   -2.2194    0.0000 H       1  UNL1        0.0235
     58 H           8.4800    0.8222    0.0000 H       1  UNL1        0.0235
     59 H           7.8648    1.4470    0.0000 H       1  UNL1        0.0235
     60 H           7.2400    0.8317    0.0000 H       1  UNL1        0.0235
     61 H           9.3555    1.6727    0.0000 H       1  UNL1        0.0301
     62 H           3.2778   -3.8241    0.0000 H       1  UNL1        0.0236
     63 H           3.5146   -4.6684    0.0000 H       1  UNL1        0.0236
     64 H           4.3588   -4.4316    0.0000 H       1  UNL1        0.0236
     65 H           4.2850   -4.4325    0.0000 H       1  UNL1        0.0236
     66 H           5.1344   -4.6496    0.0000 H       1  UNL1        0.0236
     67 H           5.3516   -3.8001    0.0000 H       1  UNL1        0.0236
     68 H           2.0000   -2.9377    0.0000 H       1  UNL1        0.2098
     69 H          10.1542    0.6638    0.0000 H       1  UNL1        0.0269
     70 H          10.7515    1.1915    0.0000 H       1  UNL1        0.0269
     71 H           8.9609    2.2448    0.0000 H       1  UNL1        0.0233
     72 H           8.0857    2.2990    0.0000 H       1  UNL1        0.0233
     73 H           8.0316    1.4238    0.0000 H       1  UNL1        0.0233
     74 H          10.4406    2.8515    0.0000 H       1  UNL1        0.0293
     75 H           9.8432    2.3238    0.0000 H       1  UNL1        0.0293
     76 H          12.0441    2.5535    0.0000 H       1  UNL1        0.0640
     77 H          12.7062    1.8041    0.0000 H       1  UNL1        0.2102
     78 H          12.8577    2.9695    0.0000 H       1  UNL1        0.0275
     79 H          13.3421    3.7003    0.0000 H       1  UNL1        0.0275
     80 H          12.6113    4.1848    0.0000 H       1  UNL1        0.0275
     81 H          11.2895    4.7157    0.0000 H       1  UNL1        0.0535
     82 H          10.4847    4.0047    0.0000 H       1  UNL1        0.0535
@<TRIPOS>BOND
     1     1    19    1
     2     1    68    1
     3     2    29    1
     4     2    77    1
     5     3     4    1
     6     3     5    1
     7     3     6    1
     8     3     9    1
     9     4     5    1
    10     4     7    1
    11     4    11    1
    12     5    33    1
    13     5    34    1
    14     6     8    1
    15     6    12    1
    16     6    35    1
    17     7    13    1
    18     7    15    1
    19     7    36    1
    20     8    10    1
    21     8    17    1
    22     8    21    1
    23     9    14    1
    24     9    37    1
    25     9    38    1
    26    10    14    1
    27    10    16    1
    28    10    22    1
    29    11    18    1
    30    11    39    1
    31    11    40    1
    32    12    13    1
    33    12    41    1
    34    12    42    1
    35    13    43    1
    36    13    44    1
    37    14    45    1
    38    14    46    1
    39    15    19    1
    40    15    24    1
    41    15    25    1
    42    16    20    1
    43    16    23    1
    44    16    47    1
    45    17    20    1
    46    17    48    1
    47    17    49    1
    48    18    19    1
    49    18    50    1
    50    18    51    1
    51    19    52    1
    52    20    53    1
    53    20    54    1
    54    21    55    1
    55    21    56    1
    56    21    57    1
    57    22    58    1
    58    22    59    1
    59    22    60    1
    60    23    26    1
    61    23    27    1
    62    23    61    1
    63    24    62    1
    64    24    63    1
    65    24    64    1
    66    25    65    1
    67    25    66    1
    68    25    67    1
    69    26    28    1
    70    26    69    1
    71    26    70    1
    72    27    71    1
    73    27    72    1
    74    27    73    1
    75    28    29    1
    76    28    74    1
    77    28    75    1
    78    29    30    1
    79    29    76    1
    80    30    31    1
    81    30    32    2
    82    31    78    1
    83    31    79    1
    84    31    80    1
    85    32    81    1
    86    32    82    1
