@<TRIPOS>MOLECULE
IMPHY009491
 28 30 0 0 0
SMALL
GASTEIGER

@<TRIPOS>ATOM
      1 O           2.5836   -0.4799    0.0000 O.3     1  UNL1       -0.4505
      2 O           2.5836   -2.0894    0.0000 O.3     1  UNL1       -0.4525
      3 O           7.0321   -0.7878    0.0000 O.3     1  UNL1       -0.4943
      4 O           5.2740    2.2846    0.0000 O.2     1  UNL1       -0.2676
      5 N           4.3798    0.7569    0.0000 N.ar    1  UNL1       -0.3078
      6 C           4.3958   -0.2846    0.0000 C.ar    1  UNL1        0.1011
      7 C           5.2619   -0.7846    0.0000 C.ar    1  UNL1        0.0442
      8 C           3.5298   -0.7846    0.0000 C.ar    1  UNL1        0.1903
      9 C           3.5298   -1.7846    0.0000 C.ar    1  UNL1        0.1683
     10 C           6.1719   -0.2778    0.0000 C.ar    1  UNL1        0.1344
     11 C           5.2619   -1.7846    0.0000 C.ar    1  UNL1       -0.0454
     12 C           4.3958   -2.2846    0.0000 C.ar    1  UNL1       -0.0153
     13 C           5.2778    1.2846    0.0000 C.ar    1  UNL1        0.2551
     14 C           6.1799    0.7638    0.0000 C.ar    1  UNL1        0.0453
     15 C           2.0000   -1.2846    0.0000 C.3     1  UNL1        0.2333
     16 C           3.5080    1.2468    0.0000 C.3     1  UNL1        0.0154
     17 C           7.9038   -0.2978    0.0000 C.3     1  UNL1        0.0788
     18 H           5.7988   -2.0946    0.0000 H       1  UNL1        0.0626
     19 H           4.3958   -2.9046    0.0000 H       1  UNL1        0.0655
     20 H           6.7180    1.0718    0.0000 H       1  UNL1        0.0709
     21 H           1.5391   -0.8699    0.0000 H       1  UNL1        0.1166
     22 H           1.5391   -1.6994    0.0000 H       1  UNL1        0.1166
     23 H           3.8118    1.7873    0.0000 H       1  UNL1        0.0457
     24 H           2.9676    1.5506    0.0000 H       1  UNL1        0.0457
     25 H           3.2043    0.7063    0.0000 H       1  UNL1        0.0457
     26 H           8.2076   -0.8383    0.0000 H       1  UNL1        0.0660
     27 H           8.4443    0.0060    0.0000 H       1  UNL1        0.0660
     28 H           7.6000    0.2427    0.0000 H       1  UNL1        0.0660
@<TRIPOS>BOND
     1     1     8    1
     2     1    15    1
     3     2     9    1
     4     2    15    1
     5     3    10    1
     6     3    17    1
     7     4    13    2
     8     5     6   ar
     9     5    13   ar
    10     5    16    1
    11     6     7   ar
    12     6     8   ar
    13     7    10   ar
    14     7    11   ar
    15     8     9   ar
    16     9    12   ar
    17    10    14   ar
    18    11    12   ar
    19    11    18    1
    20    12    19    1
    21    13    14   ar
    22    14    20    1
    23    15    21    1
    24    15    22    1
    25    16    23    1
    26    16    24    1
    27    16    25    1
    28    17    26    1
    29    17    27    1
    30    17    28    1
