@<TRIPOS>MOLECULE
IMPHY000267
 77 82 0 0 0
SMALL
GASTEIGER

@<TRIPOS>ATOM
      1 O           5.5954   -2.9872    0.0000 O.3     1  UNL1       -0.3448
      2 O           3.9300   -1.9061    0.0000 O.3     1  UNL1       -0.3480
      3 O          12.0027    2.3920    0.0000 O.3     1  UNL1       -0.4612
      4 O          11.1309    3.8886    0.0000 O.2     1  UNL1       -0.2512
      5 C           6.6628   -0.7524    0.0000 C.3     1  UNL1       -0.0233
      6 C           7.5288   -1.2524    0.0000 C.3     1  UNL1       -0.0295
      7 C           5.9258   -1.4195    0.0000 C.3     1  UNL1       -0.0015
      8 C           8.3948   -0.7524    0.0000 C.3     1  UNL1       -0.0306
      9 C           6.3309   -2.3273    0.0000 C.3     1  UNL1        0.0660
     10 C           8.3948    0.2476    0.0000 C.3     1  UNL1       -0.0285
     11 C           7.3196   -2.2242    0.0000 C.3     1  UNL1       -0.0226
     12 C           6.6628    0.2476    0.0000 C.3     1  UNL1       -0.0467
     13 C           4.9434   -1.5262    0.0000 C.3     1  UNL1        0.0160
     14 C           7.5288    0.7476    0.0000 C.3     1  UNL1       -0.0486
     15 C           9.2888    0.7822    0.0000 C.3     1  UNL1       -0.0077
     16 C           4.7396   -2.4932    0.0000 C.3     1  UNL1        0.1732
     17 C           5.7968   -0.2524    0.0000 C.3     1  UNL1       -0.0590
     18 C           9.2888   -1.2871    0.0000 C.3     1  UNL1       -0.0311
     19 C          10.1949    0.2684    0.0000 C.2     1  UNL1       -0.0638
     20 C           9.2637    1.8670    0.0000 C.3     1  UNL1       -0.0403
     21 C           4.2723   -0.7848    0.0000 C.3     1  UNL1       -0.0572
     22 C           4.6359   -3.4878    0.0000 C.3     1  UNL1        0.0020
     23 C          10.1949   -0.7732    0.0000 C.2     1  UNL1       -0.0838
     24 C           8.4189    1.2756    0.0000 C.3     1  UNL1       -0.0556
     25 C          11.1386    0.8036    0.0000 C.3     1  UNL1        0.0061
     26 C          10.1949    2.4239    0.0000 C.3     1  UNL1       -0.0146
     27 C           3.7227   -3.8953    0.0000 C.3     1  UNL1       -0.0435
     28 C          11.1386    1.8886    0.0000 C.3     1  UNL1        0.1068
     29 C           2.9132   -3.3082    0.0000 C.3     1  UNL1       -0.0201
     30 C           3.0169   -2.3136    0.0000 C.3     1  UNL1        0.0535
     31 C           2.0000   -3.7157    0.0000 C.3     1  UNL1       -0.0603
     32 C          11.9989    3.3920    0.0000 C.2     1  UNL1        0.3042
     33 C          12.8630    3.8953    0.0000 C.3     1  UNL1        0.0332
     34 H           8.2158   -1.7529    0.0000 H       1  UNL1        0.0310
     35 H           5.5777   -0.6440    0.0000 H       1  UNL1        0.0335
     36 H           8.3883   -1.6024    0.0000 H       1  UNL1        0.0310
     37 H           6.6756   -3.1042    0.0000 H       1  UNL1        0.0600
     38 H           9.1342   -0.1717    0.0000 H       1  UNL1        0.0312
     39 H           7.3187   -2.8442    0.0000 H       1  UNL1        0.0293
     40 H           7.9361   -2.2903    0.0000 H       1  UNL1        0.0293
     41 H           6.4507    0.8302    0.0000 H       1  UNL1        0.0271
     42 H           6.0522    0.1399    0.0000 H       1  UNL1        0.0271
     43 H           4.3448   -1.6880    0.0000 H       1  UNL1        0.0354
     44 H           7.9274    1.2225    0.0000 H       1  UNL1        0.0268
     45 H           7.1303    1.2225    0.0000 H       1  UNL1        0.0268
     46 H           6.1068    0.2845    0.0000 H       1  UNL1        0.0235
     47 H           5.2598    0.0576    0.0000 H       1  UNL1        0.0235
     48 H           5.4868   -0.7894    0.0000 H       1  UNL1        0.0235
     49 H           8.8842   -1.7569    0.0000 H       1  UNL1        0.0310
     50 H           9.6824   -1.7661    0.0000 H       1  UNL1        0.0310
     51 H           9.0412    2.4456    0.0000 H       1  UNL1        0.0275
     52 H           8.6555    1.7468    0.0000 H       1  UNL1        0.0275
     53 H           4.7320   -0.3687    0.0000 H       1  UNL1        0.0234
     54 H           3.8562   -0.3251    0.0000 H       1  UNL1        0.0234
     55 H           3.8126   -1.2008    0.0000 H       1  UNL1        0.0234
     56 H           4.7864   -4.0892    0.0000 H       1  UNL1        0.0317
     57 H           5.2544   -3.4440    0.0000 H       1  UNL1        0.0317
     58 H          10.7306   -1.0853    0.0000 H       1  UNL1        0.0572
     59 H           8.7248    1.8149    0.0000 H       1  UNL1        0.0238
     60 H           7.8796    1.5814    0.0000 H       1  UNL1        0.0238
     61 H           8.1131    0.7362    0.0000 H       1  UNL1        0.0238
     62 H          11.3477    0.2199    0.0000 H       1  UNL1        0.0346
     63 H          11.7495    0.9097    0.0000 H       1  UNL1        0.0346
     64 H          10.5885    2.9029    0.0000 H       1  UNL1        0.0301
     65 H           9.7903    2.8936    0.0000 H       1  UNL1        0.0301
     66 H           3.2771   -4.3264    0.0000 H       1  UNL1        0.0270
     67 H           4.0699   -4.4090    0.0000 H       1  UNL1        0.0270
     68 H          11.1351    2.5086    0.0000 H       1  UNL1        0.0737
     69 H           2.4113   -2.9442    0.0000 H       1  UNL1        0.0320
     70 H           2.8664   -1.7121    0.0000 H       1  UNL1        0.0563
     71 H           2.3984   -2.3574    0.0000 H       1  UNL1        0.0563
     72 H           1.7473   -3.1496    0.0000 H       1  UNL1        0.0233
     73 H           1.4338   -3.9684    0.0000 H       1  UNL1        0.0233
     74 H           2.2527   -4.2819    0.0000 H       1  UNL1        0.0233
     75 H          13.1750    3.3596    0.0000 H       1  UNL1        0.0342
     76 H          13.3987    4.2074    0.0000 H       1  UNL1        0.0342
     77 H          12.5509    4.4310    0.0000 H       1  UNL1        0.0342
@<TRIPOS>BOND
     1     1     9    1
     2    16     1    1
     3     2    16    1
     4     2    30    1
     5    28     3    1
     6     3    32    1
     7     4    32    2
     8     5     6    1
     9     5     7    1
    10     5    12    1
    11     5    17    1
    12     6     8    1
    13     6    11    1
    14     6    34    1
    15     7     9    1
    16     7    13    1
    17     7    35    1
    18     8    10    1
    19     8    18    1
    20     8    36    1
    21     9    11    1
    22     9    37    1
    23    10    14    1
    24    10    15    1
    25    10    38    1
    26    11    39    1
    27    11    40    1
    28    12    14    1
    29    12    41    1
    30    12    42    1
    31    13    16    1
    32    13    21    1
    33    13    43    1
    34    14    44    1
    35    14    45    1
    36    15    19    1
    37    15    20    1
    38    15    24    1
    39    16    22    1
    40    17    46    1
    41    17    47    1
    42    17    48    1
    43    18    23    1
    44    18    49    1
    45    18    50    1
    46    19    23    2
    47    19    25    1
    48    20    26    1
    49    20    51    1
    50    20    52    1
    51    21    53    1
    52    21    54    1
    53    21    55    1
    54    22    27    1
    55    22    56    1
    56    22    57    1
    57    23    58    1
    58    24    59    1
    59    24    60    1
    60    24    61    1
    61    25    28    1
    62    25    62    1
    63    25    63    1
    64    26    28    1
    65    26    64    1
    66    26    65    1
    67    27    29    1
    68    27    66    1
    69    27    67    1
    70    28    68    1
    71    29    30    1
    72    29    31    1
    73    29    69    1
    74    30    70    1
    75    30    71    1
    76    31    72    1
    77    31    73    1
    78    31    74    1
    79    32    33    1
    80    33    75    1
    81    33    76    1
    82    33    77    1
