@<TRIPOS>MOLECULE
IMPHY017225
 22 21 0 0 0
SMALL
GASTEIGER

@<TRIPOS>ATOM
      1 O           4.5981    0.2500    0.0000 O.3     1  UNL1       -0.4570
      2 O           5.4641   -1.2500    0.0000 O.2     1  UNL1       -0.2453
      3 C           3.7320   -0.2500    0.0000 C.3     1  UNL1        0.1134
      4 C           2.8660    0.2500    0.0000 C.2     1  UNL1       -0.0428
      5 C           2.0000   -0.2500    0.0000 C.3     1  UNL1       -0.0409
      6 C           6.3301    0.2500    0.0000 C.2     1  UNL1        0.0265
      7 C           5.4641   -0.2500    0.0000 C.2     1  UNL1        0.3346
      8 C           7.1962   -0.2500    0.0000 C.3     1  UNL1       -0.0335
      9 C           2.8660    1.2500    0.0000 C.2     1  UNL1       -0.0965
     10 C           6.3301    1.2500    0.0000 C.2     1  UNL1       -0.0890
     11 H           3.3335   -0.7249    0.0000 H       1  UNL1        0.0745
     12 H           4.1306   -0.7249    0.0000 H       1  UNL1        0.0745
     13 H           1.6900    0.2869    0.0000 H       1  UNL1        0.0275
     14 H           1.4631   -0.5600    0.0000 H       1  UNL1        0.0275
     15 H           2.3100   -0.7869    0.0000 H       1  UNL1        0.0275
     16 H           6.8862   -0.7869    0.0000 H       1  UNL1        0.0280
     17 H           7.7331   -0.5600    0.0000 H       1  UNL1        0.0280
     18 H           7.5062    0.2869    0.0000 H       1  UNL1        0.0280
     19 H           3.4030    1.5600    0.0000 H       1  UNL1        0.0535
     20 H           2.3291    1.5600    0.0000 H       1  UNL1        0.0535
     21 H           6.8671    1.5600    0.0000 H       1  UNL1        0.0540
     22 H           5.7932    1.5600    0.0000 H       1  UNL1        0.0540
@<TRIPOS>BOND
     1     1     3    1
     2     1     7    1
     3     2     7    2
     4     3     4    1
     5     3    11    1
     6     3    12    1
     7     4     5    1
     8     4     9    2
     9     5    13    1
    10     5    14    1
    11     5    15    1
    12     6     7    1
    13     6     8    1
    14     6    10    2
    15     8    16    1
    16     8    17    1
    17     8    18    1
    18     9    19    1
    19     9    20    1
    20    10    21    1
    21    10    22    1
