@<TRIPOS>MOLECULE
IMPHY015053
 73 77 0 0 0
SMALL
GASTEIGER

@<TRIPOS>ATOM
      1 O           6.8671   -1.7787    0.0000 O.3     1  UNL1       -0.3313
      2 O           4.2690   -4.2787    0.0000 O.3     1  UNL1       -0.3431
      3 O           6.0010   -4.2787    0.0000 O.3     1  UNL1       -0.3461
      4 O           7.7331   -4.2787    0.0000 O.3     1  UNL1       -0.3865
      5 O           9.4651   -3.2787    0.0000 O.3     1  UNL1       -0.3864
      6 O           7.7331   -0.2787    0.0000 O.3     1  UNL1       -0.4606
      7 O           9.4651   -1.2787    0.0000 O.3     1  UNL1       -0.3829
      8 O           6.0010   -6.2787    0.0000 O.3     1  UNL1       -0.3841
      9 O           4.2690   -7.2787    0.0000 O.3     1  UNL1       -0.3864
     10 O           2.5369   -6.2787    0.0000 O.3     1  UNL1       -0.3866
     11 O           5.9589    2.7733    0.0000 O.2     1  UNL1       -0.4507
     12 O           4.1934   -0.2514    0.0000 O.3     1  UNL1       -0.5058
     13 O           3.3550    1.2833    0.0000 O.2     1  UNL1       -0.2830
     14 O           3.3627    3.2833    0.0000 O.3     1  UNL1       -0.5007
     15 O           6.8384    6.2699    0.0000 O.3     1  UNL1       -0.5033
     16 O           5.1102    7.2766    0.0000 O.3     1  UNL1       -0.5033
     17 C           6.8671   -2.7787    0.0000 C.3     1  UNL1        0.1144
     18 C           7.7331   -3.2787    0.0000 C.3     1  UNL1        0.1120
     19 C           8.5991   -2.7787    0.0000 C.3     1  UNL1        0.1152
     20 C           8.5991   -1.7787    0.0000 C.3     1  UNL1        0.1454
     21 C           5.1350   -5.7787    0.0000 C.3     1  UNL1        0.1341
     22 C           5.1350   -4.7787    0.0000 C.3     1  UNL1        0.1879
     23 C           4.2690   -6.2787    0.0000 C.3     1  UNL1        0.1140
     24 C           3.4030   -5.7787    0.0000 C.3     1  UNL1        0.1095
     25 C           7.7331   -1.2787    0.0000 C.3     1  UNL1        0.2308
     26 C           3.4030   -4.7787    0.0000 C.3     1  UNL1        0.0873
     27 C           6.0010   -3.2787    0.0000 C.3     1  UNL1        0.0796
     28 C           2.5369   -4.2787    0.0000 C.3     1  UNL1       -0.0361
     29 C           6.8671    0.2213    0.0000 C.ar    1  UNL1        0.1310
     30 C           6.8630    1.2630    0.0000 C.ar    1  UNL1        0.0235
     31 C           5.9630   -0.2960    0.0000 C.ar    1  UNL1        0.0226
     32 C           5.9550    1.7733    0.0000 C.ar    1  UNL1        0.1465
     33 C           5.0670    0.2352    0.0000 C.ar    1  UNL1        0.1348
     34 C           5.0871    1.2766    0.0000 C.ar    1  UNL1        0.1092
     35 C           4.2230    1.7800    0.0000 C.ar    1  UNL1        0.2379
     36 C           5.0948    3.2766    0.0000 C.ar    1  UNL1        0.1807
     37 C           4.2268    2.7800    0.0000 C.ar    1  UNL1        0.2082
     38 C           5.0986    4.2766    0.0000 C.ar    1  UNL1        0.0247
     39 C           5.9666    4.7733    0.0000 C.ar    1  UNL1       -0.0057
     40 C           4.2345    4.7800    0.0000 C.ar    1  UNL1       -0.0473
     41 C           5.9704    5.7733    0.0000 C.ar    1  UNL1        0.1589
     42 C           4.2384    5.7800    0.0000 C.ar    1  UNL1       -0.0159
     43 C           5.1063    6.2766    0.0000 C.ar    1  UNL1        0.1583
     44 H           6.3301   -2.4687    0.0000 H       1  UNL1        0.0647
     45 H           8.2700   -3.5887    0.0000 H       1  UNL1        0.0647
     46 H           9.1360   -2.4687    0.0000 H       1  UNL1        0.0648
     47 H           8.5991   -1.1587    0.0000 H       1  UNL1        0.0683
     48 H           5.1350   -6.3987    0.0000 H       1  UNL1        0.0671
     49 H           5.1350   -4.1587    0.0000 H       1  UNL1        0.0937
     50 H           3.7320   -6.5887    0.0000 H       1  UNL1        0.0648
     51 H           3.4030   -6.3987    0.0000 H       1  UNL1        0.0646
     52 H           7.1962   -0.9687    0.0000 H       1  UNL1        0.1084
     53 H           3.4030   -4.1587    0.0000 H       1  UNL1        0.0621
     54 H           5.7890   -2.6961    0.0000 H       1  UNL1        0.0587
     55 H           5.3905   -3.3863    0.0000 H       1  UNL1        0.0587
     56 H           2.8469   -3.7417    0.0000 H       1  UNL1        0.0255
     57 H           2.0000   -3.9687    0.0000 H       1  UNL1        0.0255
     58 H           2.2269   -4.8156    0.0000 H       1  UNL1        0.0255
     59 H           8.2700   -4.5887    0.0000 H       1  UNL1        0.2100
     60 H          10.0021   -2.9687    0.0000 H       1  UNL1        0.2100
     61 H           9.4651   -0.6587    0.0000 H       1  UNL1        0.2102
     62 H           6.5380   -5.9687    0.0000 H       1  UNL1        0.2101
     63 H           3.7320   -7.5887    0.0000 H       1  UNL1        0.2100
     64 H           2.0000   -5.9687    0.0000 H       1  UNL1        0.2100
     65 H           7.3976    1.5771    0.0000 H       1  UNL1        0.0691
     66 H           5.9582   -0.9160    0.0000 H       1  UNL1        0.0691
     67 H           4.1838   -0.8713    0.0000 H       1  UNL1        0.2922
     68 H           6.5023    4.4612    0.0000 H       1  UNL1        0.0662
     69 H           3.6964    4.4720    0.0000 H       1  UNL1        0.0626
     70 H           2.8246    2.9754    0.0000 H       1  UNL1        0.2924
     71 H           3.7026    6.0920    0.0000 H       1  UNL1        0.0655
     72 H           6.8408    6.8899    0.0000 H       1  UNL1        0.2923
     73 H           4.5744    7.5887    0.0000 H       1  UNL1        0.2923
@<TRIPOS>BOND
     1     1    17    1
     2     1    25    1
     3     2    22    1
     4     2    26    1
     5    22     3    1
     6     3    27    1
     7    18     4    1
     8     4    59    1
     9    19     5    1
    10     5    60    1
    11    25     6    1
    12     6    29    1
    13     7    20    1
    14     7    61    1
    15     8    21    1
    16     8    62    1
    17    23     9    1
    18     9    63    1
    19    24    10    1
    20    10    64    1
    21    11    32   ar
    22    11    36   ar
    23    12    33    1
    24    12    67    1
    25    13    35    2
    26    14    37    1
    27    14    70    1
    28    15    41    1
    29    15    72    1
    30    16    43    1
    31    16    73    1
    32    17    18    1
    33    17    27    1
    34    17    44    1
    35    18    19    1
    36    18    45    1
    37    19    20    1
    38    19    46    1
    39    20    25    1
    40    20    47    1
    41    21    22    1
    42    21    23    1
    43    21    48    1
    44    22    49    1
    45    23    24    1
    46    23    50    1
    47    24    26    1
    48    24    51    1
    49    25    52    1
    50    26    28    1
    51    26    53    1
    52    27    54    1
    53    27    55    1
    54    28    56    1
    55    28    57    1
    56    28    58    1
    57    29    30   ar
    58    29    31   ar
    59    30    32   ar
    60    30    65    1
    61    31    33   ar
    62    31    66    1
    63    32    34   ar
    64    33    34   ar
    65    34    35   ar
    66    35    37   ar
    67    36    37   ar
    68    36    38    1
    69    38    39   ar
    70    38    40   ar
    71    39    41   ar
    72    39    68    1
    73    40    42   ar
    74    40    69    1
    75    41    43   ar
    76    42    43   ar
    77    42    71    1
