@<TRIPOS>MOLECULE
IMPHY003435
 42 43 0 0 0
SMALL
GASTEIGER

@<TRIPOS>ATOM
      1 O           2.0000    2.1900    0.0000 O.3     1  UNL1       -0.3851
      2 C           4.5981   -1.3100    0.0000 C.3     1  UNL1       -0.0317
      3 C           4.5981   -0.3100    0.0000 C.3     1  UNL1       -0.0142
      4 C           5.5443   -0.0053    0.0000 C.3     1  UNL1       -0.0371
      5 C           3.7320   -1.8100    0.0000 C.3     1  UNL1       -0.0402
      6 C           5.5443   -1.6147    0.0000 C.3     1  UNL1       -0.0492
      7 C           6.1279   -0.8100    0.0000 C.3     1  UNL1       -0.0496
      8 C           3.7320    0.1900    0.0000 C.2     1  UNL1       -0.0672
      9 C           2.8660   -1.3100    0.0000 C.3     1  UNL1       -0.0465
     10 C           2.8660   -0.3100    0.0000 C.3     1  UNL1       -0.0311
     11 C           5.8550    0.9453    0.0000 C.3     1  UNL1       -0.0619
     12 C           3.7320   -2.8100    0.0000 C.3     1  UNL1       -0.0621
     13 C           3.7320    1.1900    0.0000 C.2     1  UNL1       -0.0539
     14 C           2.8660    1.6900    0.0000 C.3     1  UNL1        0.0788
     15 C           3.3660    2.5560    0.0000 C.3     1  UNL1       -0.0327
     16 C           2.3660    0.8240    0.0000 C.3     1  UNL1       -0.0327
     17 H           4.6880   -2.1552    0.0000 H       1  UNL1        0.0309
     18 H           4.6880    0.5352    0.0000 H       1  UNL1        0.0351
     19 H           5.1068    0.4341    0.0000 H       1  UNL1        0.0304
     20 H           4.2690   -2.1200    0.0000 H       1  UNL1        0.0301
     21 H           5.2933   -2.1816    0.0000 H       1  UNL1        0.0268
     22 H           6.0817   -1.9240    0.0000 H       1  UNL1        0.0268
     23 H           6.5888   -1.2247    0.0000 H       1  UNL1        0.0268
     24 H           6.5888   -0.3953    0.0000 H       1  UNL1        0.0268
     25 H           2.2554   -1.2023    0.0000 H       1  UNL1        0.0271
     26 H           2.6540   -1.8926    0.0000 H       1  UNL1        0.0271
     27 H           2.6540    0.2726    0.0000 H       1  UNL1        0.0310
     28 H           2.2554   -0.4177    0.0000 H       1  UNL1        0.0310
     29 H           6.4443    0.7526    0.0000 H       1  UNL1        0.0233
     30 H           6.0476    1.5346    0.0000 H       1  UNL1        0.0233
     31 H           5.2656    1.1379    0.0000 H       1  UNL1        0.0233
     32 H           3.1120   -2.8100    0.0000 H       1  UNL1        0.0233
     33 H           3.7320   -3.4300    0.0000 H       1  UNL1        0.0233
     34 H           4.3520   -2.8100    0.0000 H       1  UNL1        0.0233
     35 H           4.2690    1.5000    0.0000 H       1  UNL1        0.0600
     36 H           3.9030    2.2460    0.0000 H       1  UNL1        0.0260
     37 H           3.6760    3.0930    0.0000 H       1  UNL1        0.0260
     38 H           2.8291    2.8660    0.0000 H       1  UNL1        0.0260
     39 H           1.8291    1.1340    0.0000 H       1  UNL1        0.0260
     40 H           2.0560    0.2870    0.0000 H       1  UNL1        0.0260
     41 H           2.9030    0.5140    0.0000 H       1  UNL1        0.0260
     42 H           2.0000    2.8100    0.0000 H       1  UNL1        0.2106
@<TRIPOS>BOND
     1     1    14    1
     2     1    42    1
     3     2     3    1
     4     2     5    1
     5     2     6    1
     6     2    17    1
     7     3     4    1
     8     3     8    1
     9     3    18    1
    10     4     7    1
    11     4    11    1
    12     4    19    1
    13     5     9    1
    14     5    12    1
    15     5    20    1
    16     6     7    1
    17     6    21    1
    18     6    22    1
    19     7    23    1
    20     7    24    1
    21     8    10    1
    22     8    13    2
    23     9    10    1
    24     9    25    1
    25     9    26    1
    26    10    27    1
    27    10    28    1
    28    11    29    1
    29    11    30    1
    30    11    31    1
    31    12    32    1
    32    12    33    1
    33    12    34    1
    34    13    14    1
    35    13    35    1
    36    14    15    1
    37    14    16    1
    38    15    36    1
    39    15    37    1
    40    15    38    1
    41    16    39    1
    42    16    40    1
    43    16    41    1
