@<TRIPOS>MOLECULE
IMPHY009248
 57 61 0 0 0
SMALL
GASTEIGER

@<TRIPOS>ATOM
      1 O          11.0065   -1.0546    0.0000 O.2     1  UNL1       -0.4956
      2 O           8.8413   -3.3171    0.0000 O.3     1  UNL1       -0.4646
      3 O           7.5676   -2.1433    0.0000 O.2     1  UNL1       -0.2452
      4 O           2.9339    3.1023    0.0000 O.3     1  UNL1       -0.4914
      5 O           2.3045    1.1596    0.0000 O.3     1  UNL1       -0.4914
      6 N           8.2470    1.3728    0.0000 N.2     1  UNL1       -0.2296
      7 N           5.7940    0.2554    0.0000 N.ar    1  UNL1       -0.3495
      8 C           9.5986    0.1838    0.0000 C.3     1  UNL1        0.0623
      9 C           8.9017   -0.5903    0.0000 C.3     1  UNL1        0.0153
     10 C           9.2691    1.1720    0.0000 C.3     1  UNL1        0.1521
     11 C           7.8845   -0.3658    0.0000 C.3     1  UNL1        0.0418
     12 C           7.5779    0.6297    0.0000 C.2     1  UNL1        0.2031
     13 C          10.6633   -0.0254    0.0000 C.3     1  UNL1        0.1057
     14 C           7.9380    2.3239    0.0000 C.3     1  UNL1        0.1494
     15 C           6.5998    0.8376    0.0000 C.ar    1  UNL1        0.1109
     16 C           9.2210   -1.6272    0.0000 C.2     1  UNL1        0.0748
     17 C           6.9599    2.5318    0.0000 C.3     1  UNL1        0.0344
     18 C           6.2908    1.7886    0.0000 C.ar    1  UNL1       -0.0028
     19 C          11.3238    0.7255    0.0000 C.3     1  UNL1       -0.0273
     20 C          10.2805   -1.8610    0.0000 C.2     1  UNL1        0.0951
     21 C           5.2967    1.7860    0.0000 C.ar    1  UNL1        0.0075
     22 C           4.9903    0.8404    0.0000 C.ar    1  UNL1        0.0510
     23 C           8.5433   -2.3626    0.0000 C.2     1  UNL1        0.3381
     24 C           4.6151    2.5656    0.0000 C.ar    1  UNL1       -0.0069
     25 C           3.9811    0.6086    0.0000 C.ar    1  UNL1        0.0076
     26 C           3.6008    2.3572    0.0000 C.ar    1  UNL1        0.1622
     27 C           3.2817    1.3721    0.0000 C.ar    1  UNL1        0.1635
     28 C           8.1636   -4.0525    0.0000 C.3     1  UNL1        0.0820
     29 C           3.2458    4.0525    0.0000 C.3     1  UNL1        0.0790
     30 C           2.0000    0.2071    0.0000 C.3     1  UNL1        0.0790
     31 H          10.1601    0.8220    0.0000 H       1  UNL1        0.0404
     32 H           8.3256   -1.2153    0.0000 H       1  UNL1        0.0363
     33 H           9.8822    1.2646    0.0000 H       1  UNL1        0.1030
     34 H           9.2828    1.7918    0.0000 H       1  UNL1        0.1030
     35 H           7.2695   -0.4442    0.0000 H       1  UNL1        0.0379
     36 H           7.8565   -0.9852    0.0000 H       1  UNL1        0.0379
     37 H          11.2709   -0.1484    0.0000 H       1  UNL1        0.0735
     38 H           8.5520    2.4101    0.0000 H       1  UNL1        0.1029
     39 H           7.9597    2.9435    0.0000 H       1  UNL1        0.1029
     40 H           7.1921    3.1066    0.0000 H       1  UNL1        0.0376
     41 H           6.4341    2.8603    0.0000 H       1  UNL1        0.0376
     42 H          11.7893    0.3160    0.0000 H       1  UNL1        0.0265
     43 H          11.7333    1.1910    0.0000 H       1  UNL1        0.0265
     44 H          10.8583    1.1350    0.0000 H       1  UNL1        0.0265
     45 H          10.4698   -2.4513    0.0000 H       1  UNL1        0.1028
     46 H           5.7930   -0.3646    0.0000 H       1  UNL1        0.1661
     47 H           4.8130    3.1531    0.0000 H       1  UNL1        0.0662
     48 H           3.7969    0.0166    0.0000 H       1  UNL1        0.0676
     49 H           7.7077   -3.6323    0.0000 H       1  UNL1        0.0661
     50 H           7.7435   -4.5084    0.0000 H       1  UNL1        0.0661
     51 H           8.6196   -4.4726    0.0000 H       1  UNL1        0.0661
     52 H           3.8348    3.8591    0.0000 H       1  UNL1        0.0660
     53 H           3.4391    4.6415    0.0000 H       1  UNL1        0.0660
     54 H           2.6567    4.2458    0.0000 H       1  UNL1        0.0660
     55 H           1.4095    0.3959    0.0000 H       1  UNL1        0.0660
     56 H           1.8112   -0.3834    0.0000 H       1  UNL1        0.0660
     57 H           2.5906    0.0183    0.0000 H       1  UNL1        0.0660
@<TRIPOS>UNITY_ATOM_ATTR
6 1
charge 1
@<TRIPOS>BOND
     1     1    13    1
     2     1    20    1
     3     2    23    1
     4     2    28    1
     5     3    23    2
     6     4    26    1
     7     4    29    1
     8     5    27    1
     9     5    30    1
    10     6    10    1
    11     6    12    2
    12     6    14    1
    13     7    15   ar
    14     7    22   ar
    15     7    46    1
    16     8     9    1
    17     8    10    1
    18     8    13    1
    19     8    31    1
    20     9    11    1
    21     9    16    1
    22     9    32    1
    23    10    33    1
    24    10    34    1
    25    11    12    1
    26    11    35    1
    27    11    36    1
    28    12    15    1
    29    13    19    1
    30    13    37    1
    31    14    17    1
    32    14    38    1
    33    14    39    1
    34    15    18   ar
    35    16    20    2
    36    16    23    1
    37    17    18    1
    38    17    40    1
    39    17    41    1
    40    18    21   ar
    41    19    42    1
    42    19    43    1
    43    19    44    1
    44    20    45    1
    45    21    22   ar
    46    21    24   ar
    47    22    25   ar
    48    24    26   ar
    49    24    47    1
    50    25    27   ar
    51    25    48    1
    52    26    27   ar
    53    28    49    1
    54    28    50    1
    55    28    51    1
    56    29    52    1
    57    29    53    1
    58    29    54    1
    59    30    55    1
    60    30    56    1
    61    30    57    1
