@<TRIPOS>MOLECULE
IMPHY012008
 102 107 0 0 0
SMALL
GASTEIGER

@<TRIPOS>ATOM
      1 O           7.8708   -1.4944    0.0000 O.3     1  UNL1       -0.3679
      2 O           6.8671   -4.6634    0.0000 O.3     1  UNL1       -0.3448
      3 O           5.1350   -4.6634    0.0000 O.3     1  UNL1       -0.3405
      4 O           6.8671   -6.6634    0.0000 O.3     1  UNL1       -0.3841
      5 O           5.1350   -7.6634    0.0000 O.3     1  UNL1       -0.3864
      6 O           3.4030   -6.6634    0.0000 O.3     1  UNL1       -0.3865
      7 O           5.1230    7.3864    0.0000 O.3     1  UNL1       -0.3851
      8 O           2.5369   -5.1634    0.0000 O.3     1  UNL1       -0.3924
      9 C           6.8948   -0.5942    0.0000 C.3     1  UNL1        0.0067
     10 C           7.7829    0.9438    0.0000 C.3     1  UNL1       -0.0196
     11 C           7.7628   -0.0976    0.0000 C.3     1  UNL1       -0.0088
     12 C           6.8869    1.4751    0.0000 C.3     1  UNL1       -0.0230
     13 C           6.8910   -1.5942    0.0000 C.3     1  UNL1        0.0007
     14 C           7.7551   -2.0976    0.0000 C.3     1  UNL1        0.0984
     15 C           5.9868   -0.0839    0.0000 C.3     1  UNL1       -0.0438
     16 C           7.1165    2.4847    0.0000 C.3     1  UNL1       -0.0322
     17 C           5.9828    0.9577    0.0000 C.3     1  UNL1       -0.0462
     18 C           8.5586    1.6298    0.0000 C.3     1  UNL1       -0.0463
     19 C           7.4735   -0.8001    0.0000 C.3     1  UNL1        0.0554
     20 C           7.7671   -3.1391    0.0000 C.3     1  UNL1        0.0243
     21 C           8.1475    2.5802    0.0000 C.3     1  UNL1       -0.0489
     22 C           5.9790   -2.0976    0.0000 C.3     1  UNL1       -0.0443
     23 C           8.6269   -0.6009    0.0000 C.2     1  UNL1       -0.0810
     24 C           8.6230   -1.6009    0.0000 C.2     1  UNL1       -0.0554
     25 C           8.7828    0.9323    0.0000 C.3     1  UNL1       -0.0585
     26 C           6.0267    1.9850    0.0000 C.3     1  UNL1       -0.0588
     27 C           6.8671   -3.6634    0.0000 C.3     1  UNL1        0.0698
     28 C           6.4573    3.2367    0.0000 C.3     1  UNL1       -0.0371
     29 C           5.9670   -3.1391    0.0000 C.3     1  UNL1       -0.0255
     30 C           8.2738   -4.0013    0.0000 C.3     1  UNL1       -0.0545
     31 C           8.7671   -3.1314    0.0000 C.3     1  UNL1       -0.0545
     32 C           6.7789    4.1836    0.0000 C.3     1  UNL1       -0.0318
     33 C           5.4765    3.0418    0.0000 C.3     1  UNL1       -0.0619
     34 C           6.0010   -5.1634    0.0000 C.3     1  UNL1        0.1882
     35 C           6.1197    4.9356    0.0000 C.2     1  UNL1       -0.0850
     36 C           6.0010   -6.1634    0.0000 C.3     1  UNL1        0.1341
     37 C           6.4414    5.8824    0.0000 C.2     1  UNL1       -0.0573
     38 C           5.1350   -6.6634    0.0000 C.3     1  UNL1        0.1141
     39 C           4.2690   -5.1634    0.0000 C.3     1  UNL1        0.1130
     40 C           4.2690   -6.1634    0.0000 C.3     1  UNL1        0.1119
     41 C           5.7822    6.6344    0.0000 C.3     1  UNL1        0.0786
     42 C           3.4030   -4.6634    0.0000 C.3     1  UNL1        0.0730
     43 C           6.5341    7.2936    0.0000 C.3     1  UNL1       -0.0327
     44 C           5.0302    5.9752    0.0000 C.3     1  UNL1       -0.0327
     45 H           8.5006    0.3246    0.0000 H       1  UNL1        0.0355
     46 H           6.1565   -1.1664    0.0000 H       1  UNL1        0.0338
     47 H           5.3755    0.0198    0.0000 H       1  UNL1        0.0272
     48 H           5.7800   -0.6684    0.0000 H       1  UNL1        0.0272
     49 H           7.4313    3.2743    0.0000 H       1  UNL1        0.0309
     50 H           5.7715    1.5406    0.0000 H       1  UNL1        0.0271
     51 H           5.3724    0.8493    0.0000 H       1  UNL1        0.0271
     52 H           8.9182    1.1247    0.0000 H       1  UNL1        0.0271
     53 H           9.0986    1.9343    0.0000 H       1  UNL1        0.0271
     54 H           8.0768   -0.6572    0.0000 H       1  UNL1        0.0566
     55 H           7.5073   -0.1810    0.0000 H       1  UNL1        0.0566
     56 H           8.7393    2.7651    0.0000 H       1  UNL1        0.0268
     57 H           8.0258    3.1881    0.0000 H       1  UNL1        0.0268
     58 H           5.7768   -1.5115    0.0000 H       1  UNL1        0.0270
     59 H           5.3670   -2.1966    0.0000 H       1  UNL1        0.0270
     60 H           9.1650   -0.2930    0.0000 H       1  UNL1        0.0573
     61 H           9.1588   -1.9130    0.0000 H       1  UNL1        0.0598
     62 H           8.7756    0.3123    0.0000 H       1  UNL1        0.0235
     63 H           9.4028    0.9251    0.0000 H       1  UNL1        0.0235
     64 H           8.7900    1.5522    0.0000 H       1  UNL1        0.0235
     65 H           6.3429    2.5184    0.0000 H       1  UNL1        0.0235
     66 H           5.4934    2.3012    0.0000 H       1  UNL1        0.0235
     67 H           5.7105    1.4517    0.0000 H       1  UNL1        0.0235
     68 H           7.4046   -3.9724    0.0000 H       1  UNL1        0.0603
     69 H           6.0486    3.7029    0.0000 H       1  UNL1        0.0304
     70 H           5.3574   -3.0260    0.0000 H       1  UNL1        0.0290
     71 H           5.7512   -3.7204    0.0000 H       1  UNL1        0.0290
     72 H           8.7719   -3.7514    0.0000 H       1  UNL1        0.0237
     73 H           9.3871   -3.1266    0.0000 H       1  UNL1        0.0237
     74 H           8.7623   -2.5114    0.0000 H       1  UNL1        0.0237
     75 H           7.7393   -4.3154    0.0000 H       1  UNL1        0.0237
     76 H           8.5879   -4.5358    0.0000 H       1  UNL1        0.0237
     77 H           8.8083   -3.6872    0.0000 H       1  UNL1        0.0237
     78 H           7.3224    3.8853    0.0000 H       1  UNL1        0.0310
     79 H           7.1671    4.6670    0.0000 H       1  UNL1        0.0310
     80 H           5.3556    3.6499    0.0000 H       1  UNL1        0.0233
     81 H           4.8683    2.9210    0.0000 H       1  UNL1        0.0233
     82 H           5.5973    2.4337    0.0000 H       1  UNL1        0.0233
     83 H           6.0010   -4.5434    0.0000 H       1  UNL1        0.0937
     84 H           5.5116    4.8147    0.0000 H       1  UNL1        0.0570
     85 H           6.0010   -6.7834    0.0000 H       1  UNL1        0.0671
     86 H           7.0495    6.0033    0.0000 H       1  UNL1        0.0597
     87 H           4.5981   -6.9734    0.0000 H       1  UNL1        0.0648
     88 H           4.2690   -4.5434    0.0000 H       1  UNL1        0.0647
     89 H           3.7320   -5.8534    0.0000 H       1  UNL1        0.0647
     90 H           6.8671   -7.2834    0.0000 H       1  UNL1        0.2101
     91 H           3.8015   -4.1885    0.0000 H       1  UNL1        0.0584
     92 H           3.0044   -4.1885    0.0000 H       1  UNL1        0.0584
     93 H           4.5981   -7.9734    0.0000 H       1  UNL1        0.2100
     94 H           4.6215    6.4414    0.0000 H       1  UNL1        0.0260
     95 H           4.5640    5.5665    0.0000 H       1  UNL1        0.0260
     96 H           5.4389    5.5090    0.0000 H       1  UNL1        0.0260
     97 H           6.9428    6.8274    0.0000 H       1  UNL1        0.0260
     98 H           7.0004    7.7023    0.0000 H       1  UNL1        0.0260
     99 H           6.1254    7.7598    0.0000 H       1  UNL1        0.0260
    100 H           3.4030   -7.2834    0.0000 H       1  UNL1        0.2100
    101 H           5.3224    7.9734    0.0000 H       1  UNL1        0.2106
    102 H           2.0000   -4.8534    0.0000 H       1  UNL1        0.2095
@<TRIPOS>BOND
     1     1    14    1
     2     1    19    1
     3    27     2    1
     4    34     2    1
     5     3    34    1
     6     3    39    1
     7    36     4    1
     8     4    90    1
     9    38     5    1
    10     5    93    1
    11    40     6    1
    12     6   100    1
    13     7    41    1
    14     7   101    1
    15     8    42    1
    16     8   102    1
    17     9    11    1
    18     9    13    1
    19     9    15    1
    20     9    19    1
    21    10    11    1
    22    10    12    1
    23    10    18    1
    24    10    25    1
    25    11    23    1
    26    11    45    1
    27    12    16    1
    28    12    17    1
    29    12    26    1
    30    13    14    1
    31    13    22    1
    32    13    46    1
    33    14    20    1
    34    14    24    1
    35    15    17    1
    36    15    47    1
    37    15    48    1
    38    16    21    1
    39    16    28    1
    40    16    49    1
    41    17    50    1
    42    17    51    1
    43    18    21    1
    44    18    52    1
    45    18    53    1
    46    19    54    1
    47    19    55    1
    48    20    27    1
    49    20    30    1
    50    20    31    1
    51    21    56    1
    52    21    57    1
    53    22    29    1
    54    22    58    1
    55    22    59    1
    56    23    24    2
    57    23    60    1
    58    24    61    1
    59    25    62    1
    60    25    63    1
    61    25    64    1
    62    26    65    1
    63    26    66    1
    64    26    67    1
    65    27    29    1
    66    27    68    1
    67    28    32    1
    68    28    33    1
    69    28    69    1
    70    29    70    1
    71    29    71    1
    72    30    75    1
    73    30    76    1
    74    30    77    1
    75    31    72    1
    76    31    73    1
    77    31    74    1
    78    32    35    1
    79    32    78    1
    80    32    79    1
    81    33    80    1
    82    33    81    1
    83    33    82    1
    84    34    36    1
    85    34    83    1
    86    35    37    2
    87    35    84    1
    88    36    38    1
    89    36    85    1
    90    37    41    1
    91    37    86    1
    92    38    40    1
    93    38    87    1
    94    39    40    1
    95    39    42    1
    96    39    88    1
    97    40    89    1
    98    41    43    1
    99    41    44    1
   100    42    91    1
   101    42    92    1
   102    43    97    1
   103    43    98    1
   104    43    99    1
   105    44    94    1
   106    44    95    1
   107    44    96    1
