@<TRIPOS>MOLECULE
IMPHY015368
 56 56 0 0 0
SMALL
GASTEIGER

@<TRIPOS>ATOM
      1 O           6.2588    2.6973    0.0000 O.3     1  UNL1       -0.3847
      2 O           5.2339   -0.6434    0.0000 O.3     1  UNL1       -0.3877
      3 C           5.0000   -0.0007    0.0000 C.3     1  UNL1       -0.0202
      4 C           5.8660    0.4993    0.0000 C.3     1  UNL1       -0.0404
      5 C           4.5000   -0.8667    0.0000 C.3     1  UNL1       -0.0428
      6 C           6.0000    1.7314    0.0000 C.3     1  UNL1        0.0840
      7 C           4.5000    0.8653    0.0000 C.2     1  UNL1       -0.0819
      8 C           3.5000   -0.8667    0.0000 C.3     1  UNL1       -0.0315
      9 C           6.5000    0.8653    0.0000 C.3     1  UNL1        0.0091
     10 C           5.0000    1.7314    0.0000 C.2     1  UNL1       -0.0567
     11 C           5.1000    1.1421    0.0000 C.3     1  UNL1       -0.0621
     12 C           6.7320   -0.0007    0.0000 C.3     1  UNL1       -0.0621
     13 C           6.0000   -0.0007    0.0000 C.3     1  UNL1        0.0765
     14 C           3.0000   -1.7327    0.0000 C.2     1  UNL1       -0.0765
     15 C           6.9659    1.9902    0.0000 C.3     1  UNL1       -0.0323
     16 C           6.5000   -0.8667    0.0000 C.2     1  UNL1       -0.0568
     17 C           4.5000   -2.5988    0.0000 C.3     1  UNL1       -0.0308
     18 C           3.5000   -2.5988    0.0000 C.2     1  UNL1       -0.0847
     19 C           5.0000   -1.7327    0.0000 C.3     1  UNL1       -0.0285
     20 C           6.0000   -1.7327    0.0000 C.2     1  UNL1       -0.0738
     21 C           2.0000   -1.7327    0.0000 C.3     1  UNL1       -0.0438
     22 C           6.5000   -2.5988    0.0000 C.3     1  UNL1       -0.0437
     23 H           5.4384   -0.4391    0.0000 H       1  UNL1        0.0346
     24 H           6.2216    1.0072    0.0000 H       1  UNL1        0.0301
     25 H           4.3923   -1.4773    0.0000 H       1  UNL1        0.0274
     26 H           5.0826   -1.0788    0.0000 H       1  UNL1        0.0274
     27 H           3.8800    0.8653    0.0000 H       1  UNL1        0.0573
     28 H           3.6077   -0.2561    0.0000 H       1  UNL1        0.0310
     29 H           2.9174   -0.6547    0.0000 H       1  UNL1        0.0310
     30 H           6.9750    0.4668    0.0000 H       1  UNL1        0.0324
     31 H           6.9750    1.2639    0.0000 H       1  UNL1        0.0324
     32 H           4.6900    2.2683    0.0000 H       1  UNL1        0.0597
     33 H           5.4985    1.6171    0.0000 H       1  UNL1        0.0233
     34 H           4.6250    1.5406    0.0000 H       1  UNL1        0.0233
     35 H           4.7014    0.6672    0.0000 H       1  UNL1        0.0233
     36 H           6.4220   -0.5376    0.0000 H       1  UNL1        0.0233
     37 H           7.2690   -0.3107    0.0000 H       1  UNL1        0.0233
     38 H           7.0420    0.5362    0.0000 H       1  UNL1        0.0233
     39 H           5.5251    0.3979    0.0000 H       1  UNL1        0.0639
     40 H           7.1264    1.3913    0.0000 H       1  UNL1        0.0260
     41 H           7.5648    2.1506    0.0000 H       1  UNL1        0.0260
     42 H           6.8055    2.5891    0.0000 H       1  UNL1        0.0260
     43 H           7.1200   -0.8667    0.0000 H       1  UNL1        0.0597
     44 H           4.3923   -3.2093    0.0000 H       1  UNL1        0.0310
     45 H           5.0826   -2.8108    0.0000 H       1  UNL1        0.0310
     46 H           3.1900   -3.1357    0.0000 H       1  UNL1        0.0572
     47 H           5.1077   -1.1222    0.0000 H       1  UNL1        0.0313
     48 H           4.4174   -1.5207    0.0000 H       1  UNL1        0.0313
     49 H           5.8204    3.1357    0.0000 H       1  UNL1        0.2106
     50 H           2.0000   -1.1127    0.0000 H       1  UNL1        0.0274
     51 H           1.3800   -1.7327    0.0000 H       1  UNL1        0.0274
     52 H           2.0000   -2.3527    0.0000 H       1  UNL1        0.0274
     53 H           5.6325   -1.1184    0.0000 H       1  UNL1        0.2102
     54 H           5.9631   -2.9088    0.0000 H       1  UNL1        0.0274
     55 H           6.8100   -3.1357    0.0000 H       1  UNL1        0.0274
     56 H           7.0369   -2.2888    0.0000 H       1  UNL1        0.0274
@<TRIPOS>BOND
     1     1     6    1
     2     1    49    1
     3     2    13    1
     4     2    53    1
     5     3     4    1
     6     3     5    1
     7     3     7    1
     8     3    23    1
     9     4    11    1
    10     4    12    1
    11     4    24    1
    12     5     8    1
    13     5    25    1
    14     5    26    1
    15     6     9    1
    16     6    10    1
    17     6    15    1
    18     7    10    2
    19     7    27    1
    20     8    14    1
    21     8    28    1
    22     8    29    1
    23     9    13    1
    24     9    30    1
    25     9    31    1
    26    10    32    1
    27    11    33    1
    28    11    34    1
    29    11    35    1
    30    12    36    1
    31    12    37    1
    32    12    38    1
    33    13    16    1
    34    13    39    1
    35    14    18    2
    36    14    21    1
    37    15    40    1
    38    15    41    1
    39    15    42    1
    40    16    20    2
    41    16    43    1
    42    17    18    1
    43    17    19    1
    44    17    44    1
    45    17    45    1
    46    18    46    1
    47    19    20    1
    48    19    47    1
    49    19    48    1
    50    20    22    1
    51    21    50    1
    52    21    51    1
    53    21    52    1
    54    22    54    1
    55    22    55    1
    56    22    56    1
