@<TRIPOS>MOLECULE
IMPHY009432
 59 61 0 0 0
SMALL
GASTEIGER

@<TRIPOS>ATOM
      1 O           6.8671   -0.9050    0.0000 O.3     1  UNL1       -0.4603
      2 O           5.1350   -0.9050    0.0000 O.3     1  UNL1       -0.3313
      3 O           6.8671   -2.9050    0.0000 O.3     1  UNL1       -0.3829
      4 O           5.1350   -3.9050    0.0000 O.3     1  UNL1       -0.3864
      5 O           3.4030   -2.9050    0.0000 O.3     1  UNL1       -0.3865
      6 O           8.9900    2.8502    0.0000 O.2     1  UNL1       -0.2915
      7 O           2.5369   -1.4050    0.0000 O.3     1  UNL1       -0.3924
      8 O           4.2690    3.5950    0.0000 O.3     1  UNL1       -0.3947
      9 C           9.2629    1.0950    0.0000 C.3     1  UNL1        0.0321
     10 C           8.6793    0.2903    0.0000 C.3     1  UNL1       -0.0113
     11 C           7.7331    0.5950    0.0000 C.ar    1  UNL1        0.0063
     12 C           7.7331    1.5950    0.0000 C.ar    1  UNL1        0.0278
     13 C           8.6793    1.8997    0.0000 C.2     1  UNL1        0.1697
     14 C           6.8671    0.0950    0.0000 C.ar    1  UNL1        0.1310
     15 C           6.0010   -1.4050    0.0000 C.3     1  UNL1        0.2308
     16 C           6.0010   -2.4050    0.0000 C.3     1  UNL1        0.1454
     17 C           5.1350   -2.9050    0.0000 C.3     1  UNL1        0.1152
     18 C           4.2690   -2.4050    0.0000 C.3     1  UNL1        0.1120
     19 C           4.2690   -1.4050    0.0000 C.3     1  UNL1        0.1140
     20 C           6.8671    2.0950    0.0000 C.ar    1  UNL1       -0.0360
     21 C          10.0719    1.6828    0.0000 C.3     1  UNL1       -0.0524
     22 C          10.0719    0.5072    0.0000 C.3     1  UNL1       -0.0524
     23 C           6.0010    0.5950    0.0000 C.ar    1  UNL1       -0.0049
     24 C           6.0010    1.5950    0.0000 C.ar    1  UNL1       -0.0352
     25 C           3.4030   -0.9050    0.0000 C.3     1  UNL1        0.0731
     26 C           5.1350    2.0950    0.0000 C.3     1  UNL1       -0.0038
     27 C           6.8671    3.0950    0.0000 C.3     1  UNL1       -0.0388
     28 C           5.1350    0.0950    0.0000 C.3     1  UNL1       -0.0360
     29 C           5.1350    3.0950    0.0000 C.3     1  UNL1        0.0482
     30 H           8.4283   -0.2766    0.0000 H       1  UNL1        0.0324
     31 H           9.2167   -0.0190    0.0000 H       1  UNL1        0.0324
     32 H           6.0010   -0.7850    0.0000 H       1  UNL1        0.1084
     33 H           6.0010   -3.0250    0.0000 H       1  UNL1        0.0683
     34 H           4.5981   -3.2150    0.0000 H       1  UNL1        0.0648
     35 H           3.7320   -2.0950    0.0000 H       1  UNL1        0.0647
     36 H           4.2690   -0.7850    0.0000 H       1  UNL1        0.0647
     37 H          10.4364    1.1812    0.0000 H       1  UNL1        0.0239
     38 H          10.5735    2.0472    0.0000 H       1  UNL1        0.0239
     39 H           9.7075    2.1844    0.0000 H       1  UNL1        0.0239
     40 H           9.7075    0.0056    0.0000 H       1  UNL1        0.0239
     41 H          10.5735    0.1428    0.0000 H       1  UNL1        0.0239
     42 H          10.4364    1.0088    0.0000 H       1  UNL1        0.0239
     43 H           3.8015   -0.4301    0.0000 H       1  UNL1        0.0584
     44 H           3.0044   -0.4301    0.0000 H       1  UNL1        0.0584
     45 H           4.5244    2.2027    0.0000 H       1  UNL1        0.0336
     46 H           4.9230    1.5124    0.0000 H       1  UNL1        0.0336
     47 H           7.4871    3.0950    0.0000 H       1  UNL1        0.0278
     48 H           6.8671    3.7150    0.0000 H       1  UNL1        0.0278
     49 H           6.2471    3.0950    0.0000 H       1  UNL1        0.0278
     50 H           4.8250    0.6319    0.0000 H       1  UNL1        0.0279
     51 H           4.5981   -0.2150    0.0000 H       1  UNL1        0.0279
     52 H           5.4450   -0.4419    0.0000 H       1  UNL1        0.0279
     53 H           6.8671   -3.5250    0.0000 H       1  UNL1        0.2102
     54 H           4.5981   -4.2150    0.0000 H       1  UNL1        0.2100
     55 H           3.4030   -3.5250    0.0000 H       1  UNL1        0.2100
     56 H           5.7456    2.9873    0.0000 H       1  UNL1        0.0560
     57 H           5.3471    3.6776    0.0000 H       1  UNL1        0.0560
     58 H           2.0000   -1.0950    0.0000 H       1  UNL1        0.2095
     59 H           4.2690    4.2150    0.0000 H       1  UNL1        0.2094
@<TRIPOS>BOND
     1     1    14    1
     2    15     1    1
     3     2    15    1
     4     2    19    1
     5    16     3    1
     6     3    53    1
     7    17     4    1
     8     4    54    1
     9    18     5    1
    10     5    55    1
    11     6    13    2
    12     7    25    1
    13     7    58    1
    14     8    29    1
    15     8    59    1
    16     9    10    1
    17     9    13    1
    18     9    21    1
    19     9    22    1
    20    10    11    1
    21    10    30    1
    22    10    31    1
    23    11    12   ar
    24    11    14   ar
    25    12    13    1
    26    12    20   ar
    27    14    23   ar
    28    15    16    1
    29    15    32    1
    30    16    17    1
    31    16    33    1
    32    17    18    1
    33    17    34    1
    34    18    19    1
    35    18    35    1
    36    19    25    1
    37    19    36    1
    38    20    24   ar
    39    20    27    1
    40    21    37    1
    41    21    38    1
    42    21    39    1
    43    22    40    1
    44    22    41    1
    45    22    42    1
    46    23    24   ar
    47    23    28    1
    48    24    26    1
    49    25    43    1
    50    25    44    1
    51    26    29    1
    52    26    45    1
    53    26    46    1
    54    27    47    1
    55    27    48    1
    56    27    49    1
    57    28    50    1
    58    28    51    1
    59    28    52    1
    60    29    56    1
    61    29    57    1
