@<TRIPOS>MOLECULE
IMPHY016610
 33 34 0 0 0
SMALL
GASTEIGER

@<TRIPOS>ATOM
      1 O           3.7320   -1.2500    0.0000 O.3     1  UNL1       -0.3875
      2 C           3.7320    0.7500    0.0000 C.3     1  UNL1        0.0007
      3 C           3.7320   -0.2500    0.0000 C.3     1  UNL1        0.0776
      4 C           2.8660   -0.7500    0.0000 C.3     1  UNL1       -0.0141
      5 C           2.8660    1.2500    0.0000 C.3     1  UNL1       -0.0447
      6 C           2.0000   -0.2500    0.0000 C.3     1  UNL1       -0.0478
      7 C           4.6260    1.2847    0.0000 C.3     1  UNL1       -0.0267
      8 C           2.0000    0.7500    0.0000 C.3     1  UNL1       -0.0521
      9 C           4.6260   -0.7847    0.0000 C.3     1  UNL1       -0.0050
     10 C           3.7320    1.7500    0.0000 C.3     1  UNL1       -0.0566
     11 C           2.8660   -1.7500    0.0000 C.3     1  UNL1       -0.0598
     12 C           5.5321    0.7708    0.0000 C.2     1  UNL1       -0.0872
     13 C           5.5321   -0.2708    0.0000 C.2     1  UNL1       -0.0852
     14 H           2.3291   -1.0600    0.0000 H       1  UNL1        0.0326
     15 H           3.2646    1.7250    0.0000 H       1  UNL1        0.0272
     16 H           2.4675    1.7250    0.0000 H       1  UNL1        0.0272
     17 H           1.3894   -0.1423    0.0000 H       1  UNL1        0.0269
     18 H           1.7880   -0.8326    0.0000 H       1  UNL1        0.0269
     19 H           5.0196    1.7637    0.0000 H       1  UNL1        0.0313
     20 H           4.2214    1.7544    0.0000 H       1  UNL1        0.0313
     21 H           1.7880    1.3326    0.0000 H       1  UNL1        0.0266
     22 H           1.3894    0.6423    0.0000 H       1  UNL1        0.0266
     23 H           4.2214   -1.2544    0.0000 H       1  UNL1        0.0335
     24 H           5.0196   -1.2637    0.0000 H       1  UNL1        0.0335
     25 H           4.3520    1.7500    0.0000 H       1  UNL1        0.0236
     26 H           3.7320    2.3700    0.0000 H       1  UNL1        0.0236
     27 H           3.1120    1.7500    0.0000 H       1  UNL1        0.0236
     28 H           2.2460   -1.7500    0.0000 H       1  UNL1        0.0233
     29 H           2.8660   -2.3700    0.0000 H       1  UNL1        0.0233
     30 H           3.4860   -1.7500    0.0000 H       1  UNL1        0.0233
     31 H           6.0678    1.0829    0.0000 H       1  UNL1        0.0569
     32 H           6.0678   -0.5829    0.0000 H       1  UNL1        0.0570
     33 H           4.2690   -1.5600    0.0000 H       1  UNL1        0.2102
@<TRIPOS>BOND
     1     3     1    1
     2     1    33    1
     3     2     3    1
     4     2     5    1
     5     2     7    1
     6     2    10    1
     7     3     4    1
     8     3     9    1
     9     4     6    1
    10     4    11    1
    11     4    14    1
    12     5     8    1
    13     5    15    1
    14     5    16    1
    15     6     8    1
    16     6    17    1
    17     6    18    1
    18     7    12    1
    19     7    19    1
    20     7    20    1
    21     8    21    1
    22     8    22    1
    23     9    13    1
    24     9    23    1
    25     9    24    1
    26    10    25    1
    27    10    26    1
    28    10    27    1
    29    11    28    1
    30    11    29    1
    31    11    30    1
    32    12    13    2
    33    12    31    1
    34    13    32    1
