@<TRIPOS>MOLECULE
IMPHY007161
 21 23 0 0 0
SMALL
GASTEIGER

@<TRIPOS>ATOM
      1 O           7.3424    0.1671    0.0000 O.2     1  UNL1       -0.4591
      2 O           3.7702    0.3970    0.0000 O.2     1  UNL1       -0.4183
      3 O           5.5301    1.3623    0.0000 O.3     1  UNL1       -0.5008
      4 O           2.0000    0.3865    0.0000 O.2     1  UNL1       -0.2452
      5 C           6.3961   -1.1377    0.0000 C.ar    1  UNL1        0.0246
      6 C           4.6641   -1.1377    0.0000 C.ar    1  UNL1        0.0221
      7 C           6.3961   -0.1377    0.0000 C.ar    1  UNL1        0.1797
      8 C           4.6641   -0.1377    0.0000 C.ar    1  UNL1        0.1839
      9 C           5.5301   -1.6377    0.0000 C.ar    1  UNL1       -0.0401
     10 C           5.5301    0.3623    0.0000 C.ar    1  UNL1        0.2036
     11 C           7.3424   -1.4424    0.0000 C.ar    1  UNL1       -0.0160
     12 C           3.7702   -1.6723    0.0000 C.ar    1  UNL1       -0.0442
     13 C           7.9260   -0.6377    0.0000 C.ar    1  UNL1        0.0933
     14 C           2.8641   -1.1585    0.0000 C.ar    1  UNL1        0.0236
     15 C           2.8641   -0.1169    0.0000 C.ar    1  UNL1        0.3373
     16 H           5.5301   -2.2577    0.0000 H       1  UNL1        0.0632
     17 H           7.5350   -2.0317    0.0000 H       1  UNL1        0.0655
     18 H           3.7773   -2.2923    0.0000 H       1  UNL1        0.0627
     19 H           8.5460   -0.6377    0.0000 H       1  UNL1        0.1030
     20 H           2.3284   -1.4706    0.0000 H       1  UNL1        0.0689
     21 H           6.0671    1.6723    0.0000 H       1  UNL1        0.2924
@<TRIPOS>BOND
     1     1     7   ar
     2     1    13   ar
     3     2     8   ar
     4     2    15   ar
     5     3    10    1
     6     3    21    1
     7     4    15    2
     8     5     7   ar
     9     5     9   ar
    10     5    11   ar
    11     6     8   ar
    12     6     9   ar
    13     6    12   ar
    14     7    10   ar
    15     8    10   ar
    16     9    16    1
    17    11    13   ar
    18    11    17    1
    19    12    14   ar
    20    12    18    1
    21    13    19    1
    22    14    15   ar
    23    14    20    1
