@<TRIPOS>MOLECULE
IMPHY001204
 45 47 0 0 0
SMALL
GASTEIGER

@<TRIPOS>ATOM
      1 O           9.8222   -1.5903    0.0000 O.3     1  UNL1       -0.4815
      2 O           8.0622    1.4444    0.0000 O.3     1  UNL1       -0.4937
      3 O           6.3301    1.4444    0.0000 O.2     1  UNL1       -0.2915
      4 O           4.5981    1.4444    0.0000 O.2     1  UNL1       -0.2916
      5 C          10.7282   -1.0764    0.0000 C.3     1  UNL1        0.1235
      6 C           8.9282   -0.0556    0.0000 C.ar    1  UNL1        0.0588
      7 C           8.9282   -1.0556    0.0000 C.ar    1  UNL1        0.1324
      8 C          10.7282   -0.0348    0.0000 C.2     1  UNL1       -0.0408
      9 C          11.7282   -1.0803    0.0000 C.3     1  UNL1       -0.0215
     10 C          11.2249   -1.9444    0.0000 C.3     1  UNL1       -0.0215
     11 C           9.8222    0.4790    0.0000 C.2     1  UNL1       -0.0478
     12 C           8.0622    0.4444    0.0000 C.ar    1  UNL1        0.1411
     13 C           7.1962   -0.0556    0.0000 C.ar    1  UNL1        0.0602
     14 C           8.0622   -1.5556    0.0000 C.ar    1  UNL1       -0.0184
     15 C           7.1962   -1.0556    0.0000 C.ar    1  UNL1       -0.0442
     16 C           6.3301    0.4444    0.0000 C.2     1  UNL1        0.1741
     17 C           5.4641   -0.0556    0.0000 C.3     1  UNL1        0.0737
     18 C           4.5981    0.4444    0.0000 C.2     1  UNL1        0.1706
     19 C           3.7320   -0.0556    0.0000 C.ar    1  UNL1        0.0178
     20 C           8.9282    1.9444    0.0000 C.3     1  UNL1        0.0788
     21 C           2.8660    0.4444    0.0000 C.ar    1  UNL1       -0.0513
     22 C           3.7320   -1.0556    0.0000 C.ar    1  UNL1       -0.0513
     23 C           2.0000   -0.0556    0.0000 C.ar    1  UNL1       -0.0611
     24 C           2.8660   -1.5556    0.0000 C.ar    1  UNL1       -0.0611
     25 C           2.0000   -1.0556    0.0000 C.ar    1  UNL1       -0.0617
     26 H          11.2639    0.2773    0.0000 H       1  UNL1        0.0611
     27 H          11.7258   -1.7003    0.0000 H       1  UNL1        0.0271
     28 H          10.6867   -2.2523    0.0000 H       1  UNL1        0.0271
     29 H          11.5328   -2.4825    0.0000 H       1  UNL1        0.0271
     30 H          12.3482   -1.0827    0.0000 H       1  UNL1        0.0271
     31 H          11.7306   -0.4603    0.0000 H       1  UNL1        0.0271
     32 H          11.7630   -1.6364    0.0000 H       1  UNL1        0.0271
     33 H           9.8150    1.0990    0.0000 H       1  UNL1        0.0624
     34 H           8.0622   -2.1756    0.0000 H       1  UNL1        0.0654
     35 H           6.6592   -1.3656    0.0000 H       1  UNL1        0.0627
     36 H           5.0656   -0.5306    0.0000 H       1  UNL1        0.0426
     37 H           5.8626   -0.5306    0.0000 H       1  UNL1        0.0426
     38 H           9.2382    1.4074    0.0000 H       1  UNL1        0.0660
     39 H           9.4651    2.2544    0.0000 H       1  UNL1        0.0660
     40 H           8.6182    2.4813    0.0000 H       1  UNL1        0.0660
     41 H           2.8660    1.0644    0.0000 H       1  UNL1        0.0624
     42 H           4.2690   -1.3656    0.0000 H       1  UNL1        0.0624
     43 H           1.4631    0.2544    0.0000 H       1  UNL1        0.0618
     44 H           2.8660   -2.1756    0.0000 H       1  UNL1        0.0618
     45 H           1.4631   -1.3656    0.0000 H       1  UNL1        0.0618
@<TRIPOS>BOND
     1     1     5    1
     2     1     7    1
     3     2    12    1
     4     2    20    1
     5     3    16    2
     6     4    18    2
     7     5     8    1
     8     5     9    1
     9     5    10    1
    10     6     7   ar
    11     6    11    1
    12     6    12   ar
    13     7    14   ar
    14     8    11    2
    15     8    26    1
    16     9    27    1
    17     9    30    1
    18     9    31    1
    19    10    28    1
    20    10    29    1
    21    10    32    1
    22    11    33    1
    23    12    13   ar
    24    13    15   ar
    25    13    16    1
    26    14    15   ar
    27    14    34    1
    28    15    35    1
    29    16    17    1
    30    17    18    1
    31    17    36    1
    32    17    37    1
    33    18    19    1
    34    19    21   ar
    35    19    22   ar
    36    20    38    1
    37    20    39    1
    38    20    40    1
    39    21    23   ar
    40    21    41    1
    41    22    24   ar
    42    22    42    1
    43    23    25   ar
    44    23    43    1
    45    24    25   ar
    46    24    44    1
    47    25    45    1
