@<TRIPOS>MOLECULE
IMPHY001466
 26 28 0 0 0
SMALL
GASTEIGER

@<TRIPOS>ATOM
      1 O           7.3424   -1.3047    0.0000 O.3     1  UNL1       -0.4526
      2 O           7.3424    0.3048    0.0000 O.3     1  UNL1       -0.4526
      3 O           3.7817    1.5346    0.0000 O.2     1  UNL1       -0.2700
      4 N           2.8641    0.0208    0.0000 N.am    1  UNL1       -0.3003
      5 C           3.7702   -1.5346    0.0000 C.3     1  UNL1       -0.0110
      6 C           4.6641   -1.0000    0.0000 C.ar    1  UNL1       -0.0301
      7 C           2.8641   -1.0208    0.0000 C.3     1  UNL1        0.0187
      8 C           4.6641    0.0000    0.0000 C.ar    1  UNL1        0.0438
      9 C           3.7702    0.5347    0.0000 C.2     1  UNL1        0.2468
     10 C           5.5301   -1.5000    0.0000 C.ar    1  UNL1       -0.0122
     11 C           5.5301    0.5000    0.0000 C.ar    1  UNL1       -0.0038
     12 C           6.3961   -1.0000    0.0000 C.ar    1  UNL1        0.1665
     13 C           6.3961    0.0000    0.0000 C.ar    1  UNL1        0.1670
     14 C           2.0000    0.5242    0.0000 C.3     1  UNL1        0.0035
     15 C           7.9260   -0.5000    0.0000 C.3     1  UNL1        0.2332
     16 H           3.3765   -2.0136    0.0000 H       1  UNL1        0.0329
     17 H           4.1748   -2.0044    0.0000 H       1  UNL1        0.0329
     18 H           2.2532   -0.9147    0.0000 H       1  UNL1        0.0468
     19 H           2.6550   -1.6045    0.0000 H       1  UNL1        0.0468
     20 H           5.5301   -2.1200    0.0000 H       1  UNL1        0.0658
     21 H           5.5301    1.1200    0.0000 H       1  UNL1        0.0663
     22 H           2.3121    1.0599    0.0000 H       1  UNL1        0.0429
     23 H           1.4643    0.8363    0.0000 H       1  UNL1        0.0429
     24 H           1.6879   -0.0116    0.0000 H       1  UNL1        0.0429
     25 H           8.3869   -0.9147    0.0000 H       1  UNL1        0.1166
     26 H           8.3869   -0.0852    0.0000 H       1  UNL1        0.1166
@<TRIPOS>BOND
     1     1    12    1
     2     1    15    1
     3     2    13    1
     4     2    15    1
     5     3     9    2
     6     4     7    1
     7     4     9   am
     8     4    14    1
     9     5     6    1
    10     5     7    1
    11     5    16    1
    12     5    17    1
    13     6     8   ar
    14     6    10   ar
    15     7    18    1
    16     7    19    1
    17     8     9    1
    18     8    11   ar
    19    10    12   ar
    20    10    20    1
    21    11    13   ar
    22    11    21    1
    23    12    13   ar
    24    14    22    1
    25    14    23    1
    26    14    24    1
    27    15    25    1
    28    15    26    1
