@<TRIPOS>MOLECULE
IMPHY006155
 27 29 0 0 0
SMALL
GASTEIGER

@<TRIPOS>ATOM
      1 O           4.0836   -2.0894    0.0000 O.2     1  UNL1       -0.4550
      2 O           5.8798    0.7569    0.0000 O.2     1  UNL1       -0.4214
      3 O           6.7740    2.2846    0.0000 O.2     1  UNL1       -0.2452
      4 C           5.0298   -0.7846    0.0000 C.ar    1  UNL1        0.0637
      5 C           5.0298   -1.7846    0.0000 C.ar    1  UNL1        0.1392
      6 C           5.8958   -0.2846    0.0000 C.ar    1  UNL1        0.1498
      7 C           6.7619   -0.7846    0.0000 C.ar    1  UNL1        0.0184
      8 C           4.0836   -0.4799    0.0000 C.ar    1  UNL1       -0.0049
      9 C           3.5000   -1.2846    0.0000 C.ar    1  UNL1        0.1316
     10 C           5.8958   -2.2846    0.0000 C.ar    1  UNL1       -0.0179
     11 C           6.7619   -1.7846    0.0000 C.ar    1  UNL1       -0.0476
     12 C           7.6719   -0.2778    0.0000 C.ar    1  UNL1       -0.0443
     13 C           2.5000   -1.2846    0.0000 C.2     1  UNL1       -0.0152
     14 C           7.6799    0.7638    0.0000 C.ar    1  UNL1        0.0236
     15 C           6.7778    1.2846    0.0000 C.ar    1  UNL1        0.3372
     16 C           2.0000   -2.1506    0.0000 C.3     1  UNL1       -0.0368
     17 C           2.0000   -0.4186    0.0000 C.2     1  UNL1       -0.0923
     18 H           3.8910    0.1094    0.0000 H       1  UNL1        0.0663
     19 H           5.8958   -2.9046    0.0000 H       1  UNL1        0.0655
     20 H           7.2988   -2.0946    0.0000 H       1  UNL1        0.0626
     21 H           8.2052   -0.5940    0.0000 H       1  UNL1        0.0627
     22 H           8.2180    1.0718    0.0000 H       1  UNL1        0.0689
     23 H           1.4631   -1.8406    0.0000 H       1  UNL1        0.0278
     24 H           1.6900   -2.6876    0.0000 H       1  UNL1        0.0278
     25 H           2.5369   -2.4606    0.0000 H       1  UNL1        0.0278
     26 H           2.3100    0.1183    0.0000 H       1  UNL1        0.0539
     27 H           1.3800   -0.4186    0.0000 H       1  UNL1        0.0539
@<TRIPOS>BOND
     1     1     5   ar
     2     1     9   ar
     3     2     6   ar
     4     2    15   ar
     5     3    15    2
     6     4     5   ar
     7     4     6   ar
     8     4     8   ar
     9     5    10   ar
    10     6     7   ar
    11     7    11   ar
    12     7    12   ar
    13     8     9   ar
    14     8    18    1
    15     9    13    1
    16    10    11   ar
    17    10    19    1
    18    11    20    1
    19    12    14   ar
    20    12    21    1
    21    13    16    1
    22    13    17    2
    23    14    15   ar
    24    14    22    1
    25    16    23    1
    26    16    24    1
    27    16    25    1
    28    17    26    1
    29    17    27    1
