@<TRIPOS>MOLECULE
IMPHY011749
 40 41 0 0 0
SMALL
GASTEIGER

@<TRIPOS>ATOM
      1 O           6.5567    2.1750    0.0000 O.3     1  UNL1       -0.3647
      2 C           5.6904    1.6746    0.0000 C.3     1  UNL1        0.0966
      3 C           6.5564    1.1746    0.0000 C.3     1  UNL1        0.0887
      4 C           6.8152    0.2086    0.0000 C.3     1  UNL1       -0.0202
      5 C           4.7245    1.4158    0.0000 C.3     1  UNL1       -0.0033
      6 C           4.8244    2.1746    0.0000 C.3     1  UNL1       -0.0331
      7 C           6.4638   -0.6750    0.0000 C.3     1  UNL1       -0.0296
      8 C           4.4656    0.4498    0.0000 C.2     1  UNL1       -0.0846
      9 C           2.9997   -0.6750    0.0000 C.3     1  UNL1       -0.0135
     10 C           5.5978   -1.1750    0.0000 C.2     1  UNL1       -0.0764
     11 C           3.4997    0.1910    0.0000 C.2     1  UNL1       -0.0819
     12 C           3.8657   -1.1750    0.0000 C.3     1  UNL1       -0.0259
     13 C           4.7318   -0.6750    0.0000 C.2     1  UNL1       -0.0842
     14 C           2.5204   -1.5527    0.0000 C.3     1  UNL1       -0.0561
     15 C           2.0000   -0.6512    0.0000 C.3     1  UNL1       -0.0561
     16 C           5.5978   -2.1750    0.0000 C.3     1  UNL1       -0.0438
     17 H           7.3992    1.2854    0.0000 H       1  UNL1        0.0625
     18 H           7.2939   -0.1854    0.0000 H       1  UNL1        0.0294
     19 H           7.3366    0.5442    0.0000 H       1  UNL1        0.0294
     20 H           4.6704    2.0334    0.0000 H       1  UNL1        0.0336
     21 H           4.1068    1.4698    0.0000 H       1  UNL1        0.0336
     22 H           5.1344    2.7115    0.0000 H       1  UNL1        0.0258
     23 H           4.2874    2.4846    0.0000 H       1  UNL1        0.0258
     24 H           4.5144    1.6376    0.0000 H       1  UNL1        0.0258
     25 H           6.6009   -1.2797    0.0000 H       1  UNL1        0.0311
     26 H           7.0819   -0.7232    0.0000 H       1  UNL1        0.0311
     27 H           4.9040    0.0114    0.0000 H       1  UNL1        0.0570
     28 H           3.1223    0.6829    0.0000 H       1  UNL1        0.0574
     29 H           3.4672   -1.6500    0.0000 H       1  UNL1        0.0316
     30 H           4.2643   -1.6500    0.0000 H       1  UNL1        0.0316
     31 H           4.7318   -0.0550    0.0000 H       1  UNL1        0.0572
     32 H           1.9763   -1.2555    0.0000 H       1  UNL1        0.0238
     33 H           2.2233   -2.0968    0.0000 H       1  UNL1        0.0238
     34 H           3.0646   -1.8498    0.0000 H       1  UNL1        0.0238
     35 H           2.0148   -0.0314    0.0000 H       1  UNL1        0.0238
     36 H           1.3802   -0.6365    0.0000 H       1  UNL1        0.0238
     37 H           1.9852   -1.2710    0.0000 H       1  UNL1        0.0238
     38 H           4.9778   -2.1750    0.0000 H       1  UNL1        0.0274
     39 H           5.5978   -2.7950    0.0000 H       1  UNL1        0.0274
     40 H           6.2178   -2.1750    0.0000 H       1  UNL1        0.0274
@<TRIPOS>BOND
     1     1     2    1
     2     1     3    1
     3     2     3    1
     4     2     5    1
     5     2     6    1
     6     3     4    1
     7     3    17    1
     8     4     7    1
     9     4    18    1
    10     4    19    1
    11     5     8    1
    12     5    20    1
    13     5    21    1
    14     6    22    1
    15     6    23    1
    16     6    24    1
    17     7    10    1
    18     7    25    1
    19     7    26    1
    20     8    11    2
    21     8    27    1
    22     9    11    1
    23     9    12    1
    24     9    14    1
    25     9    15    1
    26    10    13    2
    27    10    16    1
    28    11    28    1
    29    12    13    1
    30    12    29    1
    31    12    30    1
    32    13    31    1
    33    14    32    1
    34    14    33    1
    35    14    34    1
    36    15    35    1
    37    15    36    1
    38    15    37    1
    39    16    38    1
    40    16    39    1
    41    16    40    1
