@<TRIPOS>MOLECULE
IMPHY005581
 31 33 0 0 0
SMALL
GASTEIGER

@<TRIPOS>ATOM
      1 O           5.5301   -1.7379    0.0000 O.2     1  UNL1       -0.4618
      2 O           3.7817    1.2967    0.0000 O.3     1  UNL1       -0.5058
      3 O           5.5301    1.2621    0.0000 O.2     1  UNL1       -0.2863
      4 O           8.1282   -1.2379    0.0000 O.3     1  UNL1       -0.5060
      5 O           2.0000   -1.7621    0.0000 O.3     1  UNL1       -0.5065
      6 O           9.8602    1.7621    0.0000 O.3     1  UNL1       -0.5066
      7 C           4.6641   -0.2379    0.0000 C.ar    1  UNL1        0.1060
      8 C           6.3961   -0.2379    0.0000 C.ar    1  UNL1        0.0679
      9 C           4.6641   -1.2379    0.0000 C.ar    1  UNL1        0.1454
     10 C           5.5301    0.2621    0.0000 C.ar    1  UNL1        0.2038
     11 C           7.2622    0.2621    0.0000 C.ar    1  UNL1        0.0304
     12 C           3.7702    0.2967    0.0000 C.ar    1  UNL1        0.1347
     13 C           6.3961   -1.2379    0.0000 C.ar    1  UNL1        0.1040
     14 C           3.7702   -1.7726    0.0000 C.ar    1  UNL1        0.0231
     15 C           8.1282   -0.2379    0.0000 C.ar    1  UNL1        0.1282
     16 C           7.2622    1.2621    0.0000 C.ar    1  UNL1       -0.0469
     17 C           2.8641   -0.2171    0.0000 C.ar    1  UNL1        0.0223
     18 C           2.8641   -1.2587    0.0000 C.ar    1  UNL1        0.1239
     19 C           8.9942    0.2621    0.0000 C.ar    1  UNL1        0.0219
     20 C           8.1282    1.7621    0.0000 C.ar    1  UNL1       -0.0194
     21 C           8.9942    1.2621    0.0000 C.ar    1  UNL1        0.1204
     22 H           6.9331   -1.5479    0.0000 H       1  UNL1        0.1037
     23 H           3.7773   -2.3926    0.0000 H       1  UNL1        0.0691
     24 H           6.7252    1.5721    0.0000 H       1  UNL1        0.0626
     25 H           2.3284    0.0950    0.0000 H       1  UNL1        0.0691
     26 H           9.5312   -0.0479    0.0000 H       1  UNL1        0.0691
     27 H           8.1282    2.3821    0.0000 H       1  UNL1        0.0654
     28 H           3.2484    1.6129    0.0000 H       1  UNL1        0.2922
     29 H           8.6651   -1.5479    0.0000 H       1  UNL1        0.2922
     30 H           2.0024   -2.3821    0.0000 H       1  UNL1        0.2921
     31 H           9.8602    2.3821    0.0000 H       1  UNL1        0.2921
@<TRIPOS>BOND
     1     1     9   ar
     2     1    13   ar
     3     2    12    1
     4     2    28    1
     5     3    10    2
     6     4    15    1
     7     4    29    1
     8     5    18    1
     9     5    30    1
    10     6    21    1
    11     6    31    1
    12     7     9   ar
    13     7    10   ar
    14     7    12   ar
    15     8    10   ar
    16     8    11    1
    17     8    13   ar
    18     9    14   ar
    19    11    15   ar
    20    11    16   ar
    21    12    17   ar
    22    13    22    1
    23    14    18   ar
    24    14    23    1
    25    15    19   ar
    26    16    20   ar
    27    16    24    1
    28    17    18   ar
    29    17    25    1
    30    19    21   ar
    31    19    26    1
    32    20    21   ar
    33    20    27    1
