@<TRIPOS>MOLECULE
IMPHY008082
 21 22 0 0 0
SMALL
GASTEIGER

@<TRIPOS>ATOM
      1 O           4.6660    2.0000    0.0000 O.2     1  UNL1       -0.2671
      2 O           6.3981   -1.0000    0.0000 O.2     1  UNL1       -0.2465
      3 N           4.6660   -1.0000    0.0000 N.ar    1  UNL1       -0.2964
      4 N           5.5321    0.5000    0.0000 N.ar    1  UNL1       -0.2744
      5 C           3.8000   -0.5000    0.0000 C.ar    1  UNL1        0.0583
      6 C           3.8000    0.5000    0.0000 C.ar    1  UNL1        0.0630
      7 C           4.6660    1.0000    0.0000 C.ar    1  UNL1        0.2617
      8 C           5.5321   -0.5000    0.0000 C.ar    1  UNL1        0.3295
      9 C           2.9061   -1.0347    0.0000 C.ar    1  UNL1       -0.0373
     10 C           2.9061    1.0347    0.0000 C.ar    1  UNL1       -0.0474
     11 C           4.6660   -2.0000    0.0000 C.3     1  UNL1        0.0167
     12 C           2.0000   -0.5208    0.0000 C.ar    1  UNL1       -0.0598
     13 C           2.0000    0.5208    0.0000 C.ar    1  UNL1       -0.0609
     14 H           2.9132   -1.6546    0.0000 H       1  UNL1        0.0638
     15 H           2.9132    1.6546    0.0000 H       1  UNL1        0.0626
     16 H           6.0690    0.8100    0.0000 H       1  UNL1        0.1734
     17 H           4.0460   -2.0000    0.0000 H       1  UNL1        0.0457
     18 H           4.6660   -2.6200    0.0000 H       1  UNL1        0.0457
     19 H           5.2860   -2.0000    0.0000 H       1  UNL1        0.0457
     20 H           1.4643   -0.8329    0.0000 H       1  UNL1        0.0618
     21 H           1.4643    0.8329    0.0000 H       1  UNL1        0.0618
@<TRIPOS>BOND
     1     1     7    2
     2     2     8    2
     3     3     5   ar
     4     3     8   ar
     5     3    11    1
     6     4     7   ar
     7     4     8   ar
     8     4    16    1
     9     5     6   ar
    10     5     9   ar
    11     6     7   ar
    12     6    10   ar
    13     9    12   ar
    14     9    14    1
    15    10    13   ar
    16    10    15    1
    17    11    17    1
    18    11    18    1
    19    11    19    1
    20    12    13   ar
    21    12    20    1
    22    13    21    1
