@<TRIPOS>MOLECULE
IMPHY010487
 40 47 0 0 0
SMALL
GASTEIGER

@<TRIPOS>ATOM
      1 C           0.0000   -4.5909    0.0000 C.2     1  UNL1        0.0330
      2 C           0.0000   -5.8296    0.0000 C.2     1  UNL1       -0.0207
      3 C           1.0795   -6.4546    0.0000 C.3     1  UNL1        0.0562
      4 C           2.1477   -5.8296    0.0000 C.3     1  UNL1        0.1310
      5 C           2.1477   -4.5909    0.0000 C.3     1  UNL1        0.0811
      6 C           1.0795   -3.9659    0.0000 C.2     1  UNL1        0.1743
      7 C           3.2273   -6.4546    0.0000 C.3     1  UNL1        0.1774
      8 C           4.2955   -5.8296    0.0000 C.3     1  UNL1        0.0407
      9 C           4.2955   -4.5909    0.0000 C.3     1  UNL1        0.0619
     10 C           3.2273   -3.9659    0.0000 C.3     1  UNL1        0.0145
     11 C           5.3637   -3.9659    0.0000 C.3     1  UNL1        0.2400
     12 C           5.3637   -2.7273    0.0000 C.3     1  UNL1        0.2407
     13 C           4.2955   -2.1136    0.0000 C.3     1  UNL1        0.0440
     14 C           3.2273   -2.7273    0.0000 C.3     1  UNL1        0.0039
     15 C           6.5455   -4.3523    0.0000 C.2     1  UNL1        0.2034
     16 C           7.2614   -3.3523    0.0000 C.3     1  UNL1        0.0946
     17 C           6.5455   -2.3523    0.0000 C.3     1  UNL1        0.1739
     18 C           8.4887   -3.2159    0.0000 C.3     1  UNL1        0.0252
     19 C           8.9887   -2.1023    0.0000 C.3     1  UNL1        0.0485
     20 C           8.2614   -1.1023    0.0000 C.3     1  UNL1        0.2073
     21 C           7.0341   -1.2386    0.0000 C.3     1  UNL1        0.1980
     22 O           1.0795   -2.7273    0.0000 O.2     1  UNL1       -0.2913
     23 C           2.1477   -3.3523    0.0000 C.3     1  UNL1        0.0102
     24 O           2.1477   -7.0682    0.0000 O.3     1  UNL1       -0.3526
     25 O           3.2273   -7.6932    0.0000 O.3     1  UNL1       -0.2206
     26 O           4.4887   -3.6137    0.0000 O.3     1  UNL1       -0.2117
     27 C           5.0455   -1.4773    0.0000 C.2     1  UNL1        0.3471
     28 O           5.9659   -0.6136    0.0000 O.3     1  UNL1       -0.4479
     29 O           3.8523   -1.1364    0.0000 O.2     1  UNL1       -0.2473
     30 O           6.5682   -3.6477    0.0000 O.3     1  UNL1       -0.3266
     31 O           7.5000   -5.2387    0.0000 O.2     1  UNL1       -0.2909
     32 O           5.4091   -5.8750    0.0000 O.3     1  UNL1       -0.3282
     33 C           8.5228   -5.8750    0.0000 C.3     1  UNL1        0.1561
     34 C           8.4887   -4.4659    0.0000 C.3     1  UNL1        0.0013
     35 C           9.7273   -3.2159    0.0000 C.3     1  UNL1        0.1292
     36 O           9.5000   -1.1023    0.0000 O.3     1  UNL1       -0.4485
     37 C          10.1250   -2.1818    0.0000 C.2     1  UNL1        0.3189
     38 O          11.3637   -2.0909    0.0000 O.2     1  UNL1       -0.2500
     39 C           7.0341    0.0000    0.0000 C.3     1  UNL1        0.0501
     40 C           1.0682   -7.6932    0.0000 C.3     1  UNL1        0.1740
@<TRIPOS>BOND
     1     1     2    2
     2     1     6    1
     3     2     3    1
     4     3     4    1
     5     4     5    1
     6     4     7    1
     7     4    24    1
     8     5     6    1
     9     5    10    1
    10     5    23    1
    11     6    22    2
    12     7     8    1
    13     7    25    1
    14     8     9    1
    15     9    10    1
    16     9    11    1
    17    10    14    1
    18    11    15    1
    19    11    30    1
    20    11    32    1
    21    12    13    1
    22    12    17    1
    23    12    26    1
    24    12    27    1
    25    13    14    1
    26    15    16    1
    27    15    31    2
    28    16    17    1
    29    16    18    1
    30    17    21    1
    31    17    30    1
    32    18    19    1
    33    18    34    1
    34    18    35    1
    35    19    20    1
    36    20    21    1
    37    20    36    1
    38    21    28    1
    39    21    39    1
    40    24    40    1
    41    27    28    1
    42    27    29    2
    43    32    33    1
    44    33    35    1
    45    35    37    1
    46    36    37    1
    47    37    38    2
