@<TRIPOS>MOLECULE
IMPHY012893
 49 50 0 0 0
SMALL
GASTEIGER

@<TRIPOS>ATOM
      1 O           5.4641    3.5000    0.0000 O.3     1  UNL1       -0.4944
      2 O           8.9282    1.5000    0.0000 O.3     1  UNL1       -0.4914
      3 O           2.8660   -1.0000    0.0000 O.3     1  UNL1       -0.4942
      4 O           8.9282    3.5000    0.0000 O.3     1  UNL1       -0.4913
      5 O           4.5981   -4.0000    0.0000 O.3     1  UNL1       -0.4949
      6 O           6.3301   -1.0000    0.0000 O.3     1  UNL1       -0.5058
      7 O           3.7320    0.5000    0.0000 O.2     1  UNL1       -0.2870
      8 C           6.3301    2.0000    0.0000 C.ar    1  UNL1        0.0205
      9 C           4.5981   -1.0000    0.0000 C.ar    1  UNL1        0.1047
     10 C           6.3301    3.0000    0.0000 C.ar    1  UNL1        0.1309
     11 C           7.1962    1.5000    0.0000 C.ar    1  UNL1       -0.0057
     12 C           8.0622    2.0000    0.0000 C.ar    1  UNL1        0.1623
     13 C           3.7320   -1.5000    0.0000 C.ar    1  UNL1        0.1379
     14 C           8.0622    3.0000    0.0000 C.ar    1  UNL1        0.1650
     15 C           5.4641    1.5000    0.0000 C.2     1  UNL1       -0.0473
     16 C           7.1962    3.5000    0.0000 C.ar    1  UNL1        0.0260
     17 C           5.4641   -1.5000    0.0000 C.ar    1  UNL1        0.1346
     18 C           4.5981    0.0000    0.0000 C.2     1  UNL1        0.1931
     19 C           5.4641    0.5000    0.0000 C.2     1  UNL1       -0.0134
     20 C           3.7320   -2.5000    0.0000 C.ar    1  UNL1        0.0227
     21 C           4.5981   -3.0000    0.0000 C.ar    1  UNL1        0.1271
     22 C           5.4641   -2.5000    0.0000 C.ar    1  UNL1        0.0225
     23 C           5.4641    4.5000    0.0000 C.3     1  UNL1        0.0788
     24 C           9.7942    2.0000    0.0000 C.3     1  UNL1        0.0790
     25 C           2.0000   -1.5000    0.0000 C.3     1  UNL1        0.0788
     26 C           8.9282    4.5000    0.0000 C.3     1  UNL1        0.0790
     27 C           5.4641   -4.5000    0.0000 C.3     1  UNL1        0.0788
     28 H           7.1962    0.8800    0.0000 H       1  UNL1        0.0662
     29 H           4.9272    1.8100    0.0000 H       1  UNL1        0.0626
     30 H           7.1962    4.1200    0.0000 H       1  UNL1        0.0692
     31 H           6.0010    0.1900    0.0000 H       1  UNL1        0.0656
     32 H           3.1951   -2.8100    0.0000 H       1  UNL1        0.0691
     33 H           6.0010   -2.8100    0.0000 H       1  UNL1        0.0691
     34 H           6.8671   -1.3100    0.0000 H       1  UNL1        0.2922
     35 H           6.0841    4.5000    0.0000 H       1  UNL1        0.0660
     36 H           5.4641    5.1200    0.0000 H       1  UNL1        0.0660
     37 H           4.8441    4.5000    0.0000 H       1  UNL1        0.0660
     38 H          10.1042    1.4631    0.0000 H       1  UNL1        0.0660
     39 H          10.3312    2.3100    0.0000 H       1  UNL1        0.0660
     40 H           9.4842    2.5369    0.0000 H       1  UNL1        0.0660
     41 H           1.6900   -0.9631    0.0000 H       1  UNL1        0.0660
     42 H           1.4631   -1.8100    0.0000 H       1  UNL1        0.0660
     43 H           2.3100   -2.0369    0.0000 H       1  UNL1        0.0660
     44 H           9.5482    4.5000    0.0000 H       1  UNL1        0.0660
     45 H           8.9282    5.1200    0.0000 H       1  UNL1        0.0660
     46 H           8.3082    4.5000    0.0000 H       1  UNL1        0.0660
     47 H           5.1541   -5.0369    0.0000 H       1  UNL1        0.0660
     48 H           6.0010   -4.8100    0.0000 H       1  UNL1        0.0660
     49 H           5.7741   -3.9631    0.0000 H       1  UNL1        0.0660
@<TRIPOS>BOND
     1     1    10    1
     2     1    23    1
     3     2    12    1
     4     2    24    1
     5     3    13    1
     6     3    25    1
     7     4    14    1
     8     4    26    1
     9     5    21    1
    10     5    27    1
    11     6    17    1
    12     6    34    1
    13     7    18    2
    14     8    10   ar
    15     8    11   ar
    16     8    15    1
    17     9    13   ar
    18     9    17   ar
    19     9    18    1
    20    10    16   ar
    21    11    12   ar
    22    11    28    1
    23    12    14   ar
    24    13    20   ar
    25    14    16   ar
    26    15    19    2
    27    15    29    1
    28    16    30    1
    29    17    22   ar
    30    18    19    1
    31    19    31    1
    32    20    21   ar
    33    20    32    1
    34    21    22   ar
    35    22    33    1
    36    23    35    1
    37    23    36    1
    38    23    37    1
    39    24    38    1
    40    24    39    1
    41    24    40    1
    42    25    41    1
    43    25    42    1
    44    25    43    1
    45    26    44    1
    46    26    45    1
    47    26    46    1
    48    27    47    1
    49    27    48    1
    50    27    49    1
