@<TRIPOS>MOLECULE
IMPHY014232
 27 29 0 0 0
SMALL
GASTEIGER

@<TRIPOS>ATOM
      1 S           2.5233    2.4616    0.0000 S.2     1  UNL1       -0.0971
      2 O           2.8954   -2.2536    0.0000 O.3     1  UNL1       -0.3360
      3 O           2.8954   -1.0781    0.0000 O.2     1  UNL1       -0.4574
      4 C           3.7044   -1.6659    0.0000 C.3     1  UNL1        0.2328
      5 C           4.5134   -2.2536    0.0000 C.3     1  UNL1        0.0191
      6 C           4.2044   -3.2047    0.0000 C.3     1  UNL1       -0.0230
      7 C           3.2044   -3.2047    0.0000 C.3     1  UNL1        0.0525
      8 C           4.5134   -1.0781    0.0000 C.2     1  UNL1       -0.0098
      9 C           3.2044   -0.1270    0.0000 C.2     1  UNL1        0.1255
     10 C           4.2044   -0.1270    0.0000 C.2     1  UNL1       -0.0176
     11 C           2.6166    0.6820    0.0000 C.2     1  UNL1       -0.0061
     12 C           3.0233    1.5955    0.0000 C.ar    1  UNL1        0.0156
     13 C           4.0015    1.8034    0.0000 C.ar    1  UNL1       -0.0474
     14 C           4.1060    2.7980    0.0000 C.ar    1  UNL1       -0.0542
     15 C           3.1925    3.2047    0.0000 C.ar    1  UNL1       -0.0238
     16 H           5.0798   -2.5058    0.0000 H       1  UNL1        0.0333
     17 H           4.8234   -1.7167    0.0000 H       1  UNL1        0.0333
     18 H           4.1396   -3.8213    0.0000 H       1  UNL1        0.0289
     19 H           4.8108   -3.3336    0.0000 H       1  UNL1        0.0289
     20 H           2.5979   -3.3336    0.0000 H       1  UNL1        0.0561
     21 H           3.2692   -3.8213    0.0000 H       1  UNL1        0.0561
     22 H           5.1031   -1.2697    0.0000 H       1  UNL1        0.0638
     23 H           4.5688    0.3746    0.0000 H       1  UNL1        0.0653
     24 H           2.0000    0.6172    0.0000 H       1  UNL1        0.0665
     25 H           4.4622    1.3886    0.0000 H       1  UNL1        0.0629
     26 H           4.6430    3.1080    0.0000 H       1  UNL1        0.0623
     27 H           3.0636    3.8112    0.0000 H       1  UNL1        0.0693
@<TRIPOS>BOND
     1     1    12   ar
     2     1    15   ar
     3     2     4    1
     4     2     7    1
     5     3     4    1
     6     3     9    1
     7     4     5    1
     8     4     8    1
     9     5     6    1
    10     5    16    1
    11     5    17    1
    12     6     7    1
    13     6    18    1
    14     6    19    1
    15     7    20    1
    16     7    21    1
    17     8    10    2
    18     8    22    1
    19     9    10    1
    20     9    11    2
    21    10    23    1
    22    11    12    1
    23    11    24    1
    24    12    13   ar
    25    13    14   ar
    26    13    25    1
    27    14    15   ar
    28    14    26    1
    29    15    27    1
