@<TRIPOS>MOLECULE
IMPHY007326
 74 77 0 0 0
SMALL
GASTEIGER

@<TRIPOS>ATOM
      1 O           6.0010   -1.2719    0.0000 O.3     1  UNL1       -0.3481
      2 O           4.2690   -1.2719    0.0000 O.3     1  UNL1       -0.3405
      3 O           6.0010   -3.2719    0.0000 O.3     1  UNL1       -0.3841
      4 O          12.9561    3.3073    0.0000 O.3     1  UNL1       -0.4572
      5 O           4.2690   -4.2719    0.0000 O.3     1  UNL1       -0.3864
      6 O           2.5369   -3.2719    0.0000 O.3     1  UNL1       -0.3865
      7 O          11.7107    4.5819    0.0000 O.2     1  UNL1       -0.2453
      8 O           2.5369   -0.2719    0.0000 O.3     1  UNL1       -0.3924
      9 C           8.3671    1.0942    0.0000 C.3     1  UNL1       -0.0222
     10 C           7.3671    1.0942    0.0000 C.3     1  UNL1       -0.0273
     11 C           6.8671    0.2281    0.0000 C.3     1  UNL1       -0.0052
     12 C           8.9017    1.9881    0.0000 C.3     1  UNL1       -0.0142
     13 C           8.8671    0.2281    0.0000 C.3     1  UNL1       -0.0468
     14 C           6.8324    1.9881    0.0000 C.3     1  UNL1       -0.0454
     15 C           7.3671   -0.6379    0.0000 C.3     1  UNL1       -0.0452
     16 C           8.3671   -0.6379    0.0000 C.3     1  UNL1       -0.0520
     17 C           9.3671    1.0942    0.0000 C.3     1  UNL1       -0.0587
     18 C           7.3462    2.8941    0.0000 C.3     1  UNL1       -0.0314
     19 C           8.3879    2.8941    0.0000 C.2     1  UNL1       -0.0730
     20 C           6.0010   -0.2719    0.0000 C.3     1  UNL1        0.0564
     21 C           6.0010    0.7281    0.0000 C.3     1  UNL1       -0.0572
     22 C           9.9017    1.9765    0.0000 C.3     1  UNL1       -0.0418
     23 C          10.4116    2.8367    0.0000 C.3     1  UNL1       -0.0206
     24 C           8.8912    3.7582    0.0000 C.2     1  UNL1       -0.0992
     25 C           5.1350   -1.7719    0.0000 C.3     1  UNL1        0.1879
     26 C          11.4116    2.8252    0.0000 C.2     1  UNL1        0.0359
     27 C           5.1350   -2.7719    0.0000 C.3     1  UNL1        0.1341
     28 C           4.2690   -3.2719    0.0000 C.3     1  UNL1        0.1141
     29 C           3.4030   -1.7719    0.0000 C.3     1  UNL1        0.1130
     30 C           3.4030   -2.7719    0.0000 C.3     1  UNL1        0.1119
     31 C          11.9900    2.0094    0.0000 C.2     1  UNL1       -0.0371
     32 C          12.0087    3.6273    0.0000 C.2     1  UNL1        0.3352
     33 C          12.9445    2.3074    0.0000 C.3     1  UNL1        0.1118
     34 C           2.5369   -1.2719    0.0000 C.3     1  UNL1        0.0730
     35 H           6.5171    1.0876    0.0000 H       1  UNL1        0.0312
     36 H           9.2169    2.5220    0.0000 H       1  UNL1        0.0351
     37 H           9.3420   -0.1704    0.0000 H       1  UNL1        0.0271
     38 H           9.3420    0.6266    0.0000 H       1  UNL1        0.0271
     39 H           6.3534    2.3817    0.0000 H       1  UNL1        0.0271
     40 H           6.3626    1.5835    0.0000 H       1  UNL1        0.0271
     41 H           6.7844   -0.8500    0.0000 H       1  UNL1        0.0271
     42 H           7.4747   -1.2485    0.0000 H       1  UNL1        0.0271
     43 H           8.2594   -1.2485    0.0000 H       1  UNL1        0.0266
     44 H           8.9497   -0.8500    0.0000 H       1  UNL1        0.0266
     45 H           9.3671    0.4741    0.0000 H       1  UNL1        0.0235
     46 H           9.9871    1.0942    0.0000 H       1  UNL1        0.0235
     47 H           9.3671    1.7142    0.0000 H       1  UNL1        0.0235
     48 H           7.4523    3.5050    0.0000 H       1  UNL1        0.0310
     49 H           6.7626    3.1032    0.0000 H       1  UNL1        0.0310
     50 H           5.7890    0.3107    0.0000 H       1  UNL1        0.0566
     51 H           5.3905   -0.3795    0.0000 H       1  UNL1        0.0566
     52 H           6.3110    1.2651    0.0000 H       1  UNL1        0.0236
     53 H           5.4641    1.0381    0.0000 H       1  UNL1        0.0236
     54 H           5.6910    0.1912    0.0000 H       1  UNL1        0.0236
     55 H           9.7869    1.3672    0.0000 H       1  UNL1        0.0274
     56 H          10.4818    1.7578    0.0000 H       1  UNL1        0.0274
     57 H          10.5264    3.4460    0.0000 H       1  UNL1        0.0315
     58 H           9.8315    3.0555    0.0000 H       1  UNL1        0.0315
     59 H           9.5112    3.7559    0.0000 H       1  UNL1        0.0534
     60 H           8.5833    4.2964    0.0000 H       1  UNL1        0.0534
     61 H           5.1350   -1.1519    0.0000 H       1  UNL1        0.0937
     62 H           5.1350   -3.3919    0.0000 H       1  UNL1        0.0671
     63 H           3.7320   -3.5819    0.0000 H       1  UNL1        0.0648
     64 H           3.4030   -1.1519    0.0000 H       1  UNL1        0.0647
     65 H           2.8660   -2.4619    0.0000 H       1  UNL1        0.0647
     66 H          11.7916    1.4220    0.0000 H       1  UNL1        0.0610
     67 H          13.0664    1.6995    0.0000 H       1  UNL1        0.0743
     68 H          13.5618    2.3651    0.0000 H       1  UNL1        0.0743
     69 H           6.5380   -2.9619    0.0000 H       1  UNL1        0.2101
     70 H           1.9264   -1.1642    0.0000 H       1  UNL1        0.0584
     71 H           2.3249   -1.8545    0.0000 H       1  UNL1        0.0584
     72 H           3.7320   -4.5819    0.0000 H       1  UNL1        0.2100
     73 H           2.0000   -2.9619    0.0000 H       1  UNL1        0.2100
     74 H           2.0000    0.0381    0.0000 H       1  UNL1        0.2095
@<TRIPOS>BOND
     1     1    20    1
     2    25     1    1
     3     2    25    1
     4     2    29    1
     5    27     3    1
     6     3    69    1
     7     4    32    1
     8     4    33    1
     9    28     5    1
    10     5    72    1
    11    30     6    1
    12     6    73    1
    13     7    32    2
    14     8    34    1
    15     8    74    1
    16     9    10    1
    17     9    12    1
    18     9    13    1
    19     9    17    1
    20    10    11    1
    21    10    14    1
    22    10    35    1
    23    11    15    1
    24    11    20    1
    25    11    21    1
    26    12    19    1
    27    12    22    1
    28    12    36    1
    29    13    16    1
    30    13    37    1
    31    13    38    1
    32    14    18    1
    33    14    39    1
    34    14    40    1
    35    15    16    1
    36    15    41    1
    37    15    42    1
    38    16    43    1
    39    16    44    1
    40    17    45    1
    41    17    46    1
    42    17    47    1
    43    18    19    1
    44    18    48    1
    45    18    49    1
    46    19    24    2
    47    20    50    1
    48    20    51    1
    49    21    52    1
    50    21    53    1
    51    21    54    1
    52    22    23    1
    53    22    55    1
    54    22    56    1
    55    23    26    1
    56    23    57    1
    57    23    58    1
    58    24    59    1
    59    24    60    1
    60    25    27    1
    61    25    61    1
    62    26    31    2
    63    26    32    1
    64    27    28    1
    65    27    62    1
    66    28    30    1
    67    28    63    1
    68    29    30    1
    69    29    34    1
    70    29    64    1
    71    30    65    1
    72    31    33    1
    73    31    66    1
    74    33    67    1
    75    33    68    1
    76    34    70    1
    77    34    71    1
