@<TRIPOS>MOLECULE
IMPHY001092
 29 28 0 0 0
SMALL
GASTEIGER

@<TRIPOS>ATOM
      1 O           4.5981   -0.7500    0.0000 O.2     1  UNL1       -0.2974
      2 C           2.8660    0.2500    0.0000 C.3     1  UNL1       -0.0401
      3 C           3.7320    0.7500    0.0000 C.3     1  UNL1        0.0082
      4 C           5.4641    0.7500    0.0000 C.3     1  UNL1        0.0118
      5 C           6.3301    0.2500    0.0000 C.3     1  UNL1       -0.0193
      6 C           4.5981    0.2500    0.0000 C.2     1  UNL1        0.1342
      7 C           2.0000    0.7500    0.0000 C.3     1  UNL1       -0.0623
      8 C           2.8660   -0.7500    0.0000 C.3     1  UNL1       -0.0623
      9 C           6.3301   -0.7500    0.0000 C.3     1  UNL1       -0.0586
     10 C           7.1962    0.7500    0.0000 C.2     1  UNL1       -0.0879
     11 C           8.0622    0.2500    0.0000 C.2     1  UNL1       -0.1024
     12 H           2.8660    0.8700    0.0000 H       1  UNL1        0.0299
     13 H           4.1306    1.2250    0.0000 H       1  UNL1        0.0344
     14 H           3.3335    1.2250    0.0000 H       1  UNL1        0.0344
     15 H           5.8626    1.2250    0.0000 H       1  UNL1        0.0347
     16 H           5.0656    1.2250    0.0000 H       1  UNL1        0.0347
     17 H           7.0662   -0.1750    0.0000 H       1  UNL1        0.0344
     18 H           2.3100    1.2869    0.0000 H       1  UNL1        0.0232
     19 H           1.4631    1.0600    0.0000 H       1  UNL1        0.0232
     20 H           1.6900    0.2131    0.0000 H       1  UNL1        0.0232
     21 H           2.2460   -0.7500    0.0000 H       1  UNL1        0.0232
     22 H           2.8660   -1.3700    0.0000 H       1  UNL1        0.0232
     23 H           3.4860   -0.7500    0.0000 H       1  UNL1        0.0232
     24 H           5.7101   -0.7500    0.0000 H       1  UNL1        0.0235
     25 H           6.3301   -1.3700    0.0000 H       1  UNL1        0.0235
     26 H           6.9501   -0.7500    0.0000 H       1  UNL1        0.0235
     27 H           7.1962    1.3700    0.0000 H       1  UNL1        0.0569
     28 H           8.0622   -0.3700    0.0000 H       1  UNL1        0.0532
     29 H           8.5991    0.5600    0.0000 H       1  UNL1        0.0532
@<TRIPOS>BOND
     1     1     6    2
     2     2     3    1
     3     2     7    1
     4     2     8    1
     5     2    12    1
     6     3     6    1
     7     3    13    1
     8     3    14    1
     9     4     5    1
    10     4     6    1
    11     4    15    1
    12     4    16    1
    13     5     9    1
    14     5    10    1
    15     5    17    1
    16     7    18    1
    17     7    19    1
    18     7    20    1
    19     8    21    1
    20     8    22    1
    21     8    23    1
    22     9    24    1
    23     9    25    1
    24     9    26    1
    25    10    11    2
    26    10    27    1
    27    11    28    1
    28    11    29    1
