@<TRIPOS>MOLECULE
IMPHY000405
 53 57 0 0 0
SMALL
GASTEIGER

@<TRIPOS>ATOM
      1 O          11.1531    1.6536    0.0000 O.2     1  UNL1       -0.4987
      2 O          10.5739   -1.8307    0.0000 O.2     1  UNL1       -0.2926
      3 O           2.9856   -3.0354    0.0000 O.3     1  UNL1       -0.4950
      4 N           7.3118    2.1694    0.0000 N.3     1  UNL1       -0.2934
      5 N           6.2921   -1.5996    0.0000 N.ar    1  UNL1       -0.3451
      6 C           8.0484    1.1868    0.0000 C.3     1  UNL1        0.0213
      7 C           9.4801    0.9891    0.0000 C.3     1  UNL1        0.0161
      8 C           7.7896    0.2209    0.0000 C.3     1  UNL1        0.0516
      9 C           9.8384    0.0556    0.0000 C.3     1  UNL1       -0.0006
     10 C           9.0613   -0.5738    0.0000 C.3     1  UNL1       -0.0244
     11 C           6.0152    0.8757    0.0000 C.3     1  UNL1       -0.0093
     12 C           6.5686   -0.6448    0.0000 C.ar    1  UNL1        0.0400
     13 C           5.7396   -0.0856    0.0000 C.ar    1  UNL1       -0.0159
     14 C          10.1230    1.8086    0.0000 C.3     1  UNL1        0.0935
     15 C          10.8646   -0.1232    0.0000 C.2     1  UNL1        0.0324
     16 C           6.8118    3.0354    0.0000 C.3     1  UNL1       -0.0118
     17 C           4.9578   -0.6996    0.0000 C.ar    1  UNL1        0.0036
     18 C           5.2986   -1.6335    0.0000 C.ar    1  UNL1        0.0528
     19 C          11.5264    0.6812    0.0000 C.2     1  UNL1        0.0912
     20 C          11.2122   -1.0609    0.0000 C.2     1  UNL1        0.1593
     21 C           6.9064   -2.3887    0.0000 C.3     1  UNL1        0.0122
     22 C           3.9408   -0.5050    0.0000 C.ar    1  UNL1       -0.0489
     23 C           4.6460   -2.4374    0.0000 C.ar    1  UNL1        0.0041
     24 C           3.2698   -1.2937    0.0000 C.ar    1  UNL1       -0.0193
     25 C           3.6248   -2.2664    0.0000 C.ar    1  UNL1        0.1221
     26 C          12.1980   -1.2287    0.0000 C.3     1  UNL1       -0.0016
     27 C           2.0000   -2.8664    0.0000 C.3     1  UNL1        0.0788
     28 H           8.2684    2.0078    0.0000 H       1  UNL1        0.0470
     29 H           9.1755    1.7827    0.0000 H       1  UNL1        0.0355
     30 H           8.2919    0.5843    0.0000 H       1  UNL1        0.0527
     31 H          10.1431   -0.7380    0.0000 H       1  UNL1        0.0356
     32 H           8.6768   -1.0601    0.0000 H       1  UNL1        0.0290
     33 H           9.5022   -1.0096    0.0000 H       1  UNL1        0.0290
     34 H           6.0101    1.4956    0.0000 H       1  UNL1        0.0329
     35 H           5.4009    0.9594    0.0000 H       1  UNL1        0.0329
     36 H          10.3188    2.3969    0.0000 H       1  UNL1        0.0700
     37 H           9.5770    2.1022    0.0000 H       1  UNL1        0.0700
     38 H           7.3488    3.3454    0.0000 H       1  UNL1        0.0391
     39 H           6.5018    3.5724    0.0000 H       1  UNL1        0.0391
     40 H           6.2749    2.7254    0.0000 H       1  UNL1        0.0391
     41 H          12.1383    0.5818    0.0000 H       1  UNL1        0.1027
     42 H           6.4172   -2.7696    0.0000 H       1  UNL1        0.0456
     43 H           7.2873   -2.8779    0.0000 H       1  UNL1        0.0456
     44 H           7.3956   -2.0079    0.0000 H       1  UNL1        0.0456
     45 H           3.7350    0.0798    0.0000 H       1  UNL1        0.0625
     46 H           4.8653   -3.0174    0.0000 H       1  UNL1        0.0675
     47 H           2.6595   -1.1842    0.0000 H       1  UNL1        0.0654
     48 H          12.0939   -1.8400    0.0000 H       1  UNL1        0.0309
     49 H          12.8092   -1.3328    0.0000 H       1  UNL1        0.0309
     50 H          12.3020   -0.6175    0.0000 H       1  UNL1        0.0309
     51 H           2.1048   -2.2554    0.0000 H       1  UNL1        0.0660
     52 H           1.3889   -2.7617    0.0000 H       1  UNL1        0.0660
     53 H           1.8952   -3.4775    0.0000 H       1  UNL1        0.0660
@<TRIPOS>BOND
     1     1    14    1
     2     1    19    1
     3     2    20    2
     4     3    25    1
     5     3    27    1
     6     4     6    1
     7     4     8    1
     8     4    16    1
     9     5    12   ar
    10     5    18   ar
    11     5    21    1
    12     6     7    1
    13     6    11    1
    14     6    28    1
    15     7     9    1
    16     7    14    1
    17     7    29    1
    18     8    10    1
    19     8    12    1
    20     8    30    1
    21     9    10    1
    22     9    15    1
    23     9    31    1
    24    10    32    1
    25    10    33    1
    26    11    13    1
    27    11    34    1
    28    11    35    1
    29    12    13   ar
    30    13    17   ar
    31    14    36    1
    32    14    37    1
    33    15    19    2
    34    15    20    1
    35    16    38    1
    36    16    39    1
    37    16    40    1
    38    17    18   ar
    39    17    22   ar
    40    18    23   ar
    41    19    41    1
    42    20    26    1
    43    21    42    1
    44    21    43    1
    45    21    44    1
    46    22    24   ar
    47    22    45    1
    48    23    25   ar
    49    23    46    1
    50    24    25   ar
    51    24    47    1
    52    26    48    1
    53    26    49    1
    54    26    50    1
    55    27    51    1
    56    27    52    1
    57    27    53    1
