@<TRIPOS>MOLECULE
IMPHY017703
 43 42 0 0 0
SMALL
GASTEIGER

@<TRIPOS>ATOM
      1 O           2.8660    0.7500    0.0000 O.3     1  UNL1       -0.4649
      2 O           3.7320   -0.7500    0.0000 O.2     1  UNL1       -0.2456
      3 C          11.5263    0.7500    0.0000 C.3     1  UNL1       -0.0531
      4 C          10.6603    0.2500    0.0000 C.3     1  UNL1       -0.0530
      5 C          12.3923    0.2500    0.0000 C.3     1  UNL1       -0.0531
      6 C           9.7942    0.7500    0.0000 C.3     1  UNL1       -0.0528
      7 C          13.2583    0.7500    0.0000 C.3     1  UNL1       -0.0533
      8 C           8.9282    0.2500    0.0000 C.3     1  UNL1       -0.0496
      9 C          14.1244    0.2500    0.0000 C.3     1  UNL1       -0.0559
     10 C           8.0622    0.7500    0.0000 C.3     1  UNL1       -0.0345
     11 C          14.9904    0.7500    0.0000 C.3     1  UNL1       -0.0653
     12 C           7.1962    0.2500    0.0000 C.2     1  UNL1       -0.0840
     13 C           6.3301    0.7500    0.0000 C.2     1  UNL1       -0.0655
     14 C           5.4641    0.2500    0.0000 C.2     1  UNL1       -0.0553
     15 C           4.5981    0.7500    0.0000 C.2     1  UNL1        0.0225
     16 C           3.7320    0.2500    0.0000 C.2     1  UNL1        0.3317
     17 C           2.0000    0.2500    0.0000 C.3     1  UNL1        0.0820
     18 H          11.9248    1.2250    0.0000 H       1  UNL1        0.0265
     19 H          11.1278    1.2250    0.0000 H       1  UNL1        0.0265
     20 H          10.2617   -0.2249    0.0000 H       1  UNL1        0.0265
     21 H          11.0588   -0.2249    0.0000 H       1  UNL1        0.0265
     22 H          11.9938   -0.2249    0.0000 H       1  UNL1        0.0265
     23 H          12.7908   -0.2249    0.0000 H       1  UNL1        0.0265
     24 H          10.1928    1.2250    0.0000 H       1  UNL1        0.0265
     25 H           9.3957    1.2250    0.0000 H       1  UNL1        0.0265
     26 H          13.6569    1.2250    0.0000 H       1  UNL1        0.0265
     27 H          12.8598    1.2250    0.0000 H       1  UNL1        0.0265
     28 H           8.5297   -0.2249    0.0000 H       1  UNL1        0.0268
     29 H           9.3267   -0.2249    0.0000 H       1  UNL1        0.0268
     30 H          13.7258   -0.2249    0.0000 H       1  UNL1        0.0263
     31 H          14.5229   -0.2249    0.0000 H       1  UNL1        0.0263
     32 H           8.4607    1.2250    0.0000 H       1  UNL1        0.0307
     33 H           7.6636    1.2250    0.0000 H       1  UNL1        0.0307
     34 H          15.3004    0.2131    0.0000 H       1  UNL1        0.0230
     35 H          15.5273    1.0600    0.0000 H       1  UNL1        0.0230
     36 H          14.6804    1.2869    0.0000 H       1  UNL1        0.0230
     37 H           7.1962   -0.3700    0.0000 H       1  UNL1        0.0572
     38 H           6.3301    1.3700    0.0000 H       1  UNL1        0.0615
     39 H           5.4641   -0.3700    0.0000 H       1  UNL1        0.0620
     40 H           4.5981    1.3700    0.0000 H       1  UNL1        0.0689
     41 H           1.6900    0.7869    0.0000 H       1  UNL1        0.0661
     42 H           1.4631   -0.0600    0.0000 H       1  UNL1        0.0661
     43 H           2.3100   -0.2869    0.0000 H       1  UNL1        0.0661
@<TRIPOS>BOND
     1     1    16    1
     2     1    17    1
     3     2    16    2
     4     3     4    1
     5     3     5    1
     6     3    18    1
     7     3    19    1
     8     4     6    1
     9     4    20    1
    10     4    21    1
    11     5     7    1
    12     5    22    1
    13     5    23    1
    14     6     8    1
    15     6    24    1
    16     6    25    1
    17     7     9    1
    18     7    26    1
    19     7    27    1
    20     8    10    1
    21     8    28    1
    22     8    29    1
    23     9    11    1
    24     9    30    1
    25     9    31    1
    26    10    12    1
    27    10    32    1
    28    10    33    1
    29    11    34    1
    30    11    35    1
    31    11    36    1
    32    12    13    2
    33    12    37    1
    34    13    14    1
    35    13    38    1
    36    14    15    2
    37    14    39    1
    38    15    16    1
    39    15    40    1
    40    17    41    1
    41    17    42    1
    42    17    43    1
