@<TRIPOS>MOLECULE
IMPHY009434
 34 36 0 0 0
SMALL
GASTEIGER

@<TRIPOS>ATOM
      1 O           8.7460   -1.4424    0.0000 O.3     1  UNL1       -0.4837
      2 O           5.1738   -1.6723    0.0000 O.2     1  UNL1       -0.4569
      3 O           6.9338    1.3623    0.0000 O.3     1  UNL1       -0.5055
      4 O           5.1854    1.3969    0.0000 O.2     1  UNL1       -0.2869
      5 O           2.5357   -1.1652    0.0000 O.3     1  UNL1       -0.3873
      6 C           9.3297   -0.6377    0.0000 C.3     1  UNL1        0.1249
      7 C           8.7460    0.1671    0.0000 C.3     1  UNL1        0.0204
      8 C           7.7998   -0.1377    0.0000 C.ar    1  UNL1        0.0404
      9 C           7.7998   -1.1377    0.0000 C.ar    1  UNL1        0.1317
     10 C           6.9338    0.3623    0.0000 C.ar    1  UNL1        0.1380
     11 C           6.0678   -0.1377    0.0000 C.ar    1  UNL1        0.1057
     12 C          10.3297   -0.6377    0.0000 C.2     1  UNL1       -0.0395
     13 C           6.9338   -1.6377    0.0000 C.ar    1  UNL1        0.0236
     14 C           6.0678   -1.1377    0.0000 C.ar    1  UNL1        0.1459
     15 C           5.1738    0.3970    0.0000 C.ar    1  UNL1        0.1964
     16 C          10.8297   -1.5037    0.0000 C.3     1  UNL1       -0.0406
     17 C           4.2678   -1.1585    0.0000 C.ar    1  UNL1        0.1345
     18 C           4.2678   -0.1169    0.0000 C.ar    1  UNL1        0.0263
     19 C          10.8297    0.2284    0.0000 C.2     1  UNL1       -0.0962
     20 C           3.4037   -1.6618    0.0000 C.3     1  UNL1        0.1020
     21 H           9.6114   -1.1900    0.0000 H       1  UNL1        0.0784
     22 H           9.2834    0.4763    0.0000 H       1  UNL1        0.0355
     23 H           8.4950    0.7340    0.0000 H       1  UNL1        0.0355
     24 H           6.9338   -2.2577    0.0000 H       1  UNL1        0.0691
     25 H          10.2927   -1.8137    0.0000 H       1  UNL1        0.0275
     26 H          11.1397   -2.0406    0.0000 H       1  UNL1        0.0275
     27 H          11.3666   -1.1937    0.0000 H       1  UNL1        0.0275
     28 H           3.7320    0.1952    0.0000 H       1  UNL1        0.0690
     29 H          11.4497    0.2284    0.0000 H       1  UNL1        0.0535
     30 H          10.5197    0.7653    0.0000 H       1  UNL1        0.0535
     31 H           7.4707    1.6723    0.0000 H       1  UNL1        0.2922
     32 H           3.0070   -2.1383    0.0000 H       1  UNL1        0.0638
     33 H           3.8040   -2.1352    0.0000 H       1  UNL1        0.0638
     34 H           2.0000   -1.4772    0.0000 H       1  UNL1        0.2100
@<TRIPOS>BOND
     1     1     6    1
     2     1     9    1
     3     2    14   ar
     4     2    17   ar
     5     3    10    1
     6     3    31    1
     7     4    15    2
     8     5    20    1
     9     5    34    1
    10     6     7    1
    11     6    12    1
    12     6    21    1
    13     7     8    1
    14     7    22    1
    15     7    23    1
    16     8     9   ar
    17     8    10   ar
    18     9    13   ar
    19    10    11   ar
    20    11    14   ar
    21    11    15   ar
    22    12    16    1
    23    12    19    2
    24    13    14   ar
    25    13    24    1
    26    15    18   ar
    27    16    25    1
    28    16    26    1
    29    16    27    1
    30    17    18   ar
    31    17    20    1
    32    18    28    1
    33    19    29    1
    34    19    30    1
    35    20    32    1
    36    20    33    1
