@<TRIPOS>MOLECULE
IMPHY017784
 17 16 0 0 0
SMALL
GASTEIGER

@<TRIPOS>ATOM
      1 S           8.0622   -0.0000    0.0000 S.3     1  UNL1       -0.1783
      2 S           2.0000   -0.5000    0.0000 S.2     1  UNL1        0.0203
      3 N           3.7320    0.5000    0.0000 N.2     1  UNL1       -0.2346
      4 C           5.4641    0.5000    0.0000 C.3     1  UNL1       -0.0319
      5 C           6.3301    0.0000    0.0000 C.3     1  UNL1       -0.0425
      6 C           4.5981    0.0000    0.0000 C.3     1  UNL1        0.0495
      7 C           7.1962    0.5000    0.0000 C.3     1  UNL1       -0.0093
      8 C           2.8660   -0.0000    0.0000 C.1     1  UNL1        0.0358
      9 H           5.8626    0.9749    0.0000 H       1  UNL1        0.0283
     10 H           5.0656    0.9749    0.0000 H       1  UNL1        0.0283
     11 H           5.9316   -0.4749    0.0000 H       1  UNL1        0.0274
     12 H           6.7287   -0.4749    0.0000 H       1  UNL1        0.0274
     13 H           4.1996   -0.4749    0.0000 H       1  UNL1        0.0516
     14 H           4.9966   -0.4749    0.0000 H       1  UNL1        0.0516
     15 H           7.5947    0.9749    0.0000 H       1  UNL1        0.0374
     16 H           6.7976    0.9749    0.0000 H       1  UNL1        0.0374
     17 H           8.5991    0.3100    0.0000 H       1  UNL1        0.1016
@<TRIPOS>BOND
     1     1     7    1
     2     1    17    1
     3     2     8    2
     4     3     6    1
     5     3     8    2
     6     4     5    1
     7     4     6    1
     8     4     9    1
     9     4    10    1
    10     5     7    1
    11     5    11    1
    12     5    12    1
    13     6    13    1
    14     6    14    1
    15     7    15    1
    16     7    16    1
