@<TRIPOS>MOLECULE
IMPHY012034
 23 23 0 0 0
SMALL
GASTEIGER

@<TRIPOS>ATOM
      1 O           4.2690    2.3100    0.0000 O.3     1  UNL1       -0.4915
      2 O           2.5369    1.3100    0.0000 O.3     1  UNL1       -0.5033
      3 O           6.8671   -2.1900    0.0000 O.3     1  UNL1       -0.4804
      4 O           5.1350   -2.1900    0.0000 O.2     1  UNL1       -0.2507
      5 C           5.1350   -0.1900    0.0000 C.ar    1  UNL1       -0.0331
      6 C           6.0010   -0.6900    0.0000 C.3     1  UNL1        0.0700
      7 C           5.1350    0.8100    0.0000 C.ar    1  UNL1       -0.0126
      8 C           4.2690    1.3100    0.0000 C.ar    1  UNL1        0.1615
      9 C           4.2690   -0.6900    0.0000 C.ar    1  UNL1       -0.0544
     10 C           3.4030    0.8100    0.0000 C.ar    1  UNL1        0.1585
     11 C           3.4030   -0.1900    0.0000 C.ar    1  UNL1       -0.0163
     12 C           6.0010   -1.6900    0.0000 C.2     1  UNL1        0.3091
     13 C           5.1350    2.8100    0.0000 C.3     1  UNL1        0.0790
     14 H           6.6116   -0.7977    0.0000 H       1  UNL1        0.0426
     15 H           6.2131   -0.1074    0.0000 H       1  UNL1        0.0426
     16 H           5.6720    1.1200    0.0000 H       1  UNL1        0.0658
     17 H           4.2690   -1.3100    0.0000 H       1  UNL1        0.0622
     18 H           2.8660   -0.5000    0.0000 H       1  UNL1        0.0655
     19 H           5.4450    2.2731    0.0000 H       1  UNL1        0.0660
     20 H           5.6720    3.1200    0.0000 H       1  UNL1        0.0660
     21 H           4.8250    3.3469    0.0000 H       1  UNL1        0.0660
     22 H           2.0000    1.0000    0.0000 H       1  UNL1        0.2923
     23 H           6.8671   -2.8100    0.0000 H       1  UNL1        0.2951
@<TRIPOS>BOND
     1     1     8    1
     2     1    13    1
     3     2    10    1
     4     2    22    1
     5     3    12    1
     6     3    23    1
     7     4    12    2
     8     5     6    1
     9     5     7   ar
    10     5     9   ar
    11     6    12    1
    12     6    14    1
    13     6    15    1
    14     7     8   ar
    15     7    16    1
    16     8    10   ar
    17     9    11   ar
    18     9    17    1
    19    10    11   ar
    20    11    18    1
    21    13    19    1
    22    13    20    1
    23    13    21    1
