@<TRIPOS>MOLECULE
IMPHY010049
 40 42 0 0 0
SMALL
GASTEIGER

@<TRIPOS>ATOM
      1 O           3.5836    0.3977    0.0000 O.3     1  UNL1       -0.4564
      2 O           8.0321    0.0899    0.0000 O.3     1  UNL1       -0.3909
      3 O           2.0000   -0.4070    0.0000 O.2     1  UNL1       -0.2505
      4 C           6.2619    0.0930    0.0000 C.3     1  UNL1        0.0185
      5 C           4.5298   -0.9070    0.0000 C.3     1  UNL1        0.0128
      6 C           4.5298    0.0930    0.0000 C.3     1  UNL1        0.1285
      7 C           5.3958    0.5930    0.0000 C.2     1  UNL1       -0.0220
      8 C           6.2619   -0.9070    0.0000 C.3     1  UNL1       -0.0410
      9 C           5.3958   -1.4070    0.0000 C.3     1  UNL1       -0.0449
     10 C           7.1719    0.5998    0.0000 C.3     1  UNL1        0.0647
     11 C           3.5836   -1.2117    0.0000 C.3     1  UNL1        0.0601
     12 C           5.3798    1.6345    0.0000 C.2     1  UNL1       -0.0692
     13 C           7.1799    1.6414    0.0000 C.3     1  UNL1       -0.0224
     14 C           7.1279   -0.4070    0.0000 C.3     1  UNL1       -0.0533
     15 C           6.2778    2.1623    0.0000 C.3     1  UNL1       -0.0293
     16 C           3.0000   -0.4070    0.0000 C.2     1  UNL1        0.3109
     17 C           3.2729   -2.1623    0.0000 C.3     1  UNL1       -0.0519
     18 C           4.5080    2.1245    0.0000 C.3     1  UNL1       -0.0434
     19 H           4.4399   -1.7522    0.0000 H       1  UNL1        0.0348
     20 H           4.4399    0.9382    0.0000 H       1  UNL1        0.0785
     21 H           6.4739   -1.4896    0.0000 H       1  UNL1        0.0274
     22 H           6.8725   -0.7993    0.0000 H       1  UNL1        0.0274
     23 H           4.9973   -1.8820    0.0000 H       1  UNL1        0.0270
     24 H           5.7944   -1.8820    0.0000 H       1  UNL1        0.0270
     25 H           7.7118    0.9047    0.0000 H       1  UNL1        0.0602
     26 H           2.9711   -1.3079    0.0000 H       1  UNL1        0.0415
     27 H           7.7899    1.5306    0.0000 H       1  UNL1        0.0293
     28 H           7.3935    2.2235    0.0000 H       1  UNL1        0.0293
     29 H           6.8179   -0.9439    0.0000 H       1  UNL1        0.0239
     30 H           7.6648   -0.7170    0.0000 H       1  UNL1        0.0239
     31 H           7.4379    0.1299    0.0000 H       1  UNL1        0.0239
     32 H           6.6751    2.6382    0.0000 H       1  UNL1        0.0311
     33 H           5.8769    2.6352    0.0000 H       1  UNL1        0.0311
     34 H           2.6836   -1.9696    0.0000 H       1  UNL1        0.0238
     35 H           3.0803   -2.7516    0.0000 H       1  UNL1        0.0238
     36 H           3.8623   -2.3549    0.0000 H       1  UNL1        0.0238
     37 H           4.8118    2.6649    0.0000 H       1  UNL1        0.0274
     38 H           3.9676    2.4282    0.0000 H       1  UNL1        0.0274
     39 H           4.2043    1.5840    0.0000 H       1  UNL1        0.0274
     40 H           8.5726    0.3936    0.0000 H       1  UNL1        0.2098
@<TRIPOS>BOND
     1     1     6    1
     2     1    16    1
     3    10     2    1
     4     2    40    1
     5     3    16    2
     6     4     7    1
     7     4     8    1
     8     4    10    1
     9     4    14    1
    10     5     6    1
    11     5     9    1
    12     5    11    1
    13     5    19    1
    14     6     7    1
    15     6    20    1
    16     7    12    2
    17     8     9    1
    18     8    21    1
    19     8    22    1
    20     9    23    1
    21     9    24    1
    22    10    13    1
    23    10    25    1
    24    11    16    1
    25    11    17    1
    26    11    26    1
    27    12    15    1
    28    12    18    1
    29    13    15    1
    30    13    27    1
    31    13    28    1
    32    14    29    1
    33    14    30    1
    34    14    31    1
    35    15    32    1
    36    15    33    1
    37    17    34    1
    38    17    35    1
    39    17    36    1
    40    18    37    1
    41    18    38    1
    42    18    39    1
