@<TRIPOS>MOLECULE
IMPHY005036
 21 22 0 0 0
SMALL
GASTEIGER

@<TRIPOS>ATOM
      1 O           4.6660   -1.7327    0.0000 O.2     1  UNL1       -0.4219
      2 O           4.6660    1.2673    0.0000 O.3     1  UNL1       -0.4942
      3 O           6.3981   -1.7327    0.0000 O.2     1  UNL1       -0.2451
      4 C           3.8000   -0.2327    0.0000 C.ar    1  UNL1        0.0592
      5 C           3.8000   -1.2327    0.0000 C.ar    1  UNL1        0.1426
      6 C           4.6660    0.2673    0.0000 C.ar    1  UNL1        0.1375
      7 C           2.9061    0.3020    0.0000 C.ar    1  UNL1       -0.0476
      8 C           2.9061   -1.7673    0.0000 C.ar    1  UNL1       -0.0185
      9 C           5.5321   -0.2327    0.0000 C.ar    1  UNL1        0.0652
     10 C           2.0000   -0.2119    0.0000 C.ar    1  UNL1       -0.0609
     11 C           2.0000   -1.2535    0.0000 C.ar    1  UNL1       -0.0582
     12 C           5.5321   -1.2327    0.0000 C.ar    1  UNL1        0.3408
     13 C           5.5321    1.7673    0.0000 C.3     1  UNL1        0.0788
     14 H           2.9132    0.9220    0.0000 H       1  UNL1        0.0626
     15 H           2.9132   -2.3873    0.0000 H       1  UNL1        0.0654
     16 H           6.0690    0.0773    0.0000 H       1  UNL1        0.0726
     17 H           1.4643    0.1002    0.0000 H       1  UNL1        0.0618
     18 H           1.4643   -1.5656    0.0000 H       1  UNL1        0.0619
     19 H           5.8421    1.2304    0.0000 H       1  UNL1        0.0660
     20 H           6.0690    2.0773    0.0000 H       1  UNL1        0.0660
     21 H           5.2221    2.3043    0.0000 H       1  UNL1        0.0660
@<TRIPOS>BOND
     1     1     5   ar
     2     1    12   ar
     3     2     6    1
     4     2    13    1
     5     3    12    2
     6     4     5   ar
     7     4     6   ar
     8     4     7   ar
     9     5     8   ar
    10     6     9   ar
    11     7    10   ar
    12     7    14    1
    13     8    11   ar
    14     8    15    1
    15     9    12   ar
    16     9    16    1
    17    10    11   ar
    18    10    17    1
    19    11    18    1
    20    13    19    1
    21    13    20    1
    22    13    21    1
