@<TRIPOS>MOLECULE
IMPHY007091
 24 25 0 0 0
SMALL
GASTEIGER

@<TRIPOS>ATOM
      1 O           6.9939   -0.7500    0.0000 O.3     1  UNL1       -0.4563
      2 O           4.5981    1.2500    0.0000 O.3     1  UNL1       -0.4906
      3 O           2.8660    0.2500    0.0000 O.3     1  UNL1       -0.4914
      4 O           6.7210    1.0052    0.0000 O.2     1  UNL1       -0.2448
      5 C           5.4641   -1.2500    0.0000 C.ar    1  UNL1        0.0075
      6 C           5.4641   -0.2500    0.0000 C.ar    1  UNL1        0.1105
      7 C           6.4103   -1.5547    0.0000 C.3     1  UNL1        0.1187
      8 C           4.5981    0.2500    0.0000 C.ar    1  UNL1        0.1758
      9 C           4.5981   -1.7500    0.0000 C.ar    1  UNL1       -0.0509
     10 C           3.7320   -0.2500    0.0000 C.ar    1  UNL1        0.1623
     11 C           6.4103    0.0547    0.0000 C.2     1  UNL1        0.3436
     12 C           3.7320   -1.2500    0.0000 C.ar    1  UNL1       -0.0159
     13 C           3.7320    1.7500    0.0000 C.3     1  UNL1        0.0790
     14 C           2.0000   -0.2500    0.0000 C.3     1  UNL1        0.0790
     15 H           6.1593   -2.1216    0.0000 H       1  UNL1        0.0749
     16 H           6.9477   -1.8640    0.0000 H       1  UNL1        0.0749
     17 H           4.5981   -2.3700    0.0000 H       1  UNL1        0.0623
     18 H           3.1951   -1.5600    0.0000 H       1  UNL1        0.0655
     19 H           4.0420    2.2869    0.0000 H       1  UNL1        0.0660
     20 H           3.1951    2.0600    0.0000 H       1  UNL1        0.0660
     21 H           3.4220    1.2131    0.0000 H       1  UNL1        0.0660
     22 H           1.6900    0.2869    0.0000 H       1  UNL1        0.0660
     23 H           1.4631   -0.5600    0.0000 H       1  UNL1        0.0660
     24 H           2.3100   -0.7869    0.0000 H       1  UNL1        0.0660
@<TRIPOS>BOND
     1     1     7    1
     2     1    11    1
     3     2     8    1
     4     2    13    1
     5     3    10    1
     6     3    14    1
     7     4    11    2
     8     5     6   ar
     9     5     7    1
    10     5     9   ar
    11     6     8   ar
    12     6    11    1
    13     7    15    1
    14     7    16    1
    15     8    10   ar
    16     9    12   ar
    17     9    17    1
    18    10    12   ar
    19    12    18    1
    20    13    19    1
    21    13    20    1
    22    13    21    1
    23    14    22    1
    24    14    23    1
    25    14    24    1
