@<TRIPOS>MOLECULE
IMPHY002194
 40 41 0 0 0
SMALL
GASTEIGER

@<TRIPOS>ATOM
      1 O           2.5369   -2.5950    0.0000 O.3     1  UNL1       -0.3947
      2 C           4.2690    0.4050    0.0000 C.3     1  UNL1       -0.0130
      3 C           3.4030   -0.0950    0.0000 C.3     1  UNL1       -0.0293
      4 C           4.2690    1.4050    0.0000 C.3     1  UNL1       -0.0133
      5 C           2.5369    0.4050    0.0000 C.3     1  UNL1       -0.0457
      6 C           3.4030   -1.0950    0.0000 C.3     1  UNL1       -0.0173
      7 C           5.1629    1.9397    0.0000 C.3     1  UNL1       -0.0423
      8 C           3.4030    1.9050    0.0000 C.2     1  UNL1       -0.0729
      9 C           2.5369    1.4050    0.0000 C.3     1  UNL1       -0.0314
     10 C           5.1629   -0.1297    0.0000 C.2     1  UNL1       -0.0811
     11 C           6.0690    1.4258    0.0000 C.3     1  UNL1       -0.0314
     12 C           6.0690    0.3842    0.0000 C.2     1  UNL1       -0.0762
     13 C           2.5369   -1.5950    0.0000 C.3     1  UNL1        0.0470
     14 C           4.2690   -1.5950    0.0000 C.3     1  UNL1       -0.0601
     15 C           3.4030    2.9050    0.0000 C.2     1  UNL1       -0.0992
     16 C           6.9331   -0.1192    0.0000 C.3     1  UNL1       -0.0438
     17 H           4.2642   -0.2150    0.0000 H       1  UNL1        0.0352
     18 H           2.8660   -0.4050    0.0000 H       1  UNL1        0.0310
     19 H           4.2642    2.0250    0.0000 H       1  UNL1        0.0351
     20 H           1.9264    0.5127    0.0000 H       1  UNL1        0.0271
     21 H           2.3249   -0.1776    0.0000 H       1  UNL1        0.0271
     22 H           3.4030   -1.7150    0.0000 H       1  UNL1        0.0323
     23 H           5.5566    2.4187    0.0000 H       1  UNL1        0.0274
     24 H           4.7583    2.4094    0.0000 H       1  UNL1        0.0274
     25 H           2.3249    1.9876    0.0000 H       1  UNL1        0.0310
     26 H           1.9264    1.2973    0.0000 H       1  UNL1        0.0310
     27 H           5.1558   -0.7496    0.0000 H       1  UNL1        0.0575
     28 H           6.6798    1.3197    0.0000 H       1  UNL1        0.0310
     29 H           6.2780    2.0095    0.0000 H       1  UNL1        0.0310
     30 H           2.3249   -1.0124    0.0000 H       1  UNL1        0.0560
     31 H           1.9264   -1.7027    0.0000 H       1  UNL1        0.0560
     32 H           3.9590   -2.1319    0.0000 H       1  UNL1        0.0233
     33 H           4.8059   -1.9050    0.0000 H       1  UNL1        0.0233
     34 H           4.5790   -1.0581    0.0000 H       1  UNL1        0.0233
     35 H           3.9399    3.2150    0.0000 H       1  UNL1        0.0534
     36 H           2.8660    3.2150    0.0000 H       1  UNL1        0.0534
     37 H           6.6210   -0.6549    0.0000 H       1  UNL1        0.0274
     38 H           7.4688   -0.4312    0.0000 H       1  UNL1        0.0274
     39 H           7.2452    0.4166    0.0000 H       1  UNL1        0.0274
     40 H           2.0000   -2.9050    0.0000 H       1  UNL1        0.2094
@<TRIPOS>BOND
     1     1    13    1
     2     1    40    1
     3     2     3    1
     4     2     4    1
     5     2    10    1
     6     2    17    1
     7     3     5    1
     8     3     6    1
     9     3    18    1
    10     4     7    1
    11     4     8    1
    12     4    19    1
    13     5     9    1
    14     5    20    1
    15     5    21    1
    16     6    13    1
    17     6    14    1
    18     6    22    1
    19     7    11    1
    20     7    23    1
    21     7    24    1
    22     8     9    1
    23     8    15    2
    24     9    25    1
    25     9    26    1
    26    10    12    2
    27    10    27    1
    28    11    12    1
    29    11    28    1
    30    11    29    1
    31    12    16    1
    32    13    30    1
    33    13    31    1
    34    14    32    1
    35    14    33    1
    36    14    34    1
    37    15    35    1
    38    15    36    1
    39    16    37    1
    40    16    38    1
    41    16    39    1
