@<TRIPOS>MOLECULE
IMPHY010284
 54 57 0 0 0
SMALL
GASTEIGER

@<TRIPOS>ATOM
      1 O           3.5026   -2.6882    0.0000 O.3     1  UNL1       -0.3851
      2 O           3.2847    0.3800    0.0000 O.3     1  UNL1       -0.3869
      3 O           2.5576   -2.2267    0.0000 O.3     1  UNL1       -0.3886
      4 O           5.2102    2.4847    0.0000 O.3     1  UNL1       -0.3797
      5 O           4.3867    3.4680    0.0000 O.2     1  UNL1       -0.2893
      6 O           7.8653    0.4105    0.0000 O.3     1  UNL1       -0.3907
      7 C           5.1805   -1.5251    0.0000 C.3     1  UNL1        0.0076
      8 C           4.3244   -2.1185    0.0000 C.3     1  UNL1        0.1015
      9 C           5.2667   -2.5637    0.0000 C.3     1  UNL1        0.0028
     10 C           5.0867   -0.4877    0.0000 C.3     1  UNL1        0.0134
     11 C           4.1857   -0.0539    0.0000 C.3     1  UNL1        0.0869
     12 C           3.3860   -1.6666    0.0000 C.3     1  UNL1        0.0899
     13 C           3.3161   -0.6273    0.0000 C.3     1  UNL1        0.0150
     14 C           6.2633   -2.4812    0.0000 C.3     1  UNL1       -0.0567
     15 C           4.8398   -3.4680    0.0000 C.3     1  UNL1       -0.0567
     16 C           3.9632    0.9211    0.0000 C.3     1  UNL1        0.0439
     17 C           5.9876   -0.0539    0.0000 C.2     1  UNL1       -0.0763
     18 C           4.5867    1.7029    0.0000 C.3     1  UNL1        0.1403
     19 C           2.3181   -0.6905    0.0000 C.3     1  UNL1       -0.0573
     20 C           5.5867    1.7029    0.0000 C.3     1  UNL1        0.0073
     21 C           6.2102    0.9211    0.0000 C.2     1  UNL1       -0.0449
     22 C           3.0334    1.2728    0.0000 C.2     1  UNL1       -0.0687
     23 C           4.0369    2.5311    0.0000 C.2     1  UNL1        0.1909
     24 C           3.0789    2.2658    0.0000 C.2     1  UNL1       -0.0086
     25 C           7.1851    1.1436    0.0000 C.3     1  UNL1        0.0654
     26 C           2.2970    2.8893    0.0000 C.3     1  UNL1       -0.0366
     27 H           6.0274   -1.4517    0.0000 H       1  UNL1        0.0342
     28 H           5.8261   -0.9071    0.0000 H       1  UNL1        0.0375
     29 H           2.8289   -1.3944    0.0000 H       1  UNL1        0.0626
     30 H           3.1193   -0.0394    0.0000 H       1  UNL1        0.0352
     31 H           6.3144   -3.0991    0.0000 H       1  UNL1        0.0236
     32 H           6.8812   -2.4301    0.0000 H       1  UNL1        0.0236
     33 H           6.2122   -1.8634    0.0000 H       1  UNL1        0.0236
     34 H           4.2791   -3.2033    0.0000 H       1  UNL1        0.0236
     35 H           4.5751   -4.0286    0.0000 H       1  UNL1        0.0236
     36 H           5.4004   -3.7326    0.0000 H       1  UNL1        0.0236
     37 H           4.7919    0.7319    0.0000 H       1  UNL1        0.0404
     38 H           6.4724   -0.4404    0.0000 H       1  UNL1        0.0576
     39 H           3.5537   -3.3061    0.0000 H       1  UNL1        0.2103
     40 H           2.2790   -0.0717    0.0000 H       1  UNL1        0.0234
     41 H           1.6994   -0.7297    0.0000 H       1  UNL1        0.0234
     42 H           2.3573   -1.3092    0.0000 H       1  UNL1        0.0234
     43 H           2.6665    0.3337    0.0000 H       1  UNL1        0.2102
     44 H           2.0000   -1.9556    0.0000 H       1  UNL1        0.2099
     45 H           6.1453    1.9719    0.0000 H       1  UNL1        0.0343
     46 H           5.4487    2.3074    0.0000 H       1  UNL1        0.0343
     47 H           2.5154    0.9321    0.0000 H       1  UNL1        0.0580
     48 H           5.8232    2.3923    0.0000 H       1  UNL1        0.2108
     49 H           7.7059    1.4800    0.0000 H       1  UNL1        0.0604
     50 H           6.9443    1.7149    0.0000 H       1  UNL1        0.0604
     51 H           2.6836    3.3740    0.0000 H       1  UNL1        0.0279
     52 H           1.8123    3.2759    0.0000 H       1  UNL1        0.0279
     53 H           1.9105    2.4046    0.0000 H       1  UNL1        0.0279
     54 H           8.4697    0.5485    0.0000 H       1  UNL1        0.2098
@<TRIPOS>BOND
     1     8     1    1
     2     1    39    1
     3    11     2    1
     4     2    43    1
     5    12     3    1
     6     3    44    1
     7    18     4    1
     8     4    48    1
     9     5    23    2
    10     6    25    1
    11     6    54    1
    12     7     8    1
    13     7     9    1
    14     7    10    1
    15     7    27    1
    16     8     9    1
    17     8    12    1
    18     9    14    1
    19     9    15    1
    20    10    11    1
    21    10    17    1
    22    10    28    1
    23    11    13    1
    24    11    16    1
    25    12    13    1
    26    12    29    1
    27    13    19    1
    28    13    30    1
    29    14    31    1
    30    14    32    1
    31    14    33    1
    32    15    34    1
    33    15    35    1
    34    15    36    1
    35    16    18    1
    36    16    22    1
    37    16    37    1
    38    17    21    2
    39    17    38    1
    40    18    20    1
    41    18    23    1
    42    19    40    1
    43    19    41    1
    44    19    42    1
    45    20    21    1
    46    20    45    1
    47    20    46    1
    48    21    25    1
    49    22    24    2
    50    22    47    1
    51    23    24    1
    52    24    26    1
    53    25    49    1
    54    25    50    1
    55    26    51    1
    56    26    52    1
    57    26    53    1
