@<TRIPOS>MOLECULE
IMPHY016017
 21 21 0 0 0
SMALL
GASTEIGER

@<TRIPOS>ATOM
      1 O           2.8660   -3.1550    0.0000 O.3     1  UNL1       -0.5068
      2 O           4.5981    2.8450    0.0000 O.3     1  UNL1       -0.3910
      3 C           2.8660   -0.1550    0.0000 C.ar    1  UNL1       -0.0250
      4 C           3.7320   -0.6550    0.0000 C.ar    1  UNL1       -0.0512
      5 C           2.0000   -0.6550    0.0000 C.ar    1  UNL1       -0.0512
      6 C           2.8660    0.8450    0.0000 C.2     1  UNL1       -0.0564
      7 C           3.7320   -1.6550    0.0000 C.ar    1  UNL1       -0.0196
      8 C           2.0000   -1.6550    0.0000 C.ar    1  UNL1       -0.0196
      9 C           2.8660   -2.1550    0.0000 C.ar    1  UNL1        0.1169
     10 C           3.7320    1.3450    0.0000 C.2     1  UNL1       -0.0584
     11 C           3.7320    2.3450    0.0000 C.3     1  UNL1        0.0627
     12 H           4.2690   -0.3450    0.0000 H       1  UNL1        0.0625
     13 H           1.4631   -0.3450    0.0000 H       1  UNL1        0.0625
     14 H           2.3291    1.1550    0.0000 H       1  UNL1        0.0621
     15 H           4.2690   -1.9650    0.0000 H       1  UNL1        0.0654
     16 H           1.4631   -1.9650    0.0000 H       1  UNL1        0.0654
     17 H           4.2690    1.0350    0.0000 H       1  UNL1        0.0595
     18 H           3.5200    2.9276    0.0000 H       1  UNL1        0.0601
     19 H           3.1215    2.2373    0.0000 H       1  UNL1        0.0601
     20 H           2.3291   -3.4650    0.0000 H       1  UNL1        0.2921
     21 H           4.5981    3.4650    0.0000 H       1  UNL1        0.2098
@<TRIPOS>BOND
     1     1     9    1
     2     1    20    1
     3     2    11    1
     4     2    21    1
     5     3     4   ar
     6     3     5   ar
     7     3     6    1
     8     4     7   ar
     9     4    12    1
    10     5     8   ar
    11     5    13    1
    12     6    10    2
    13     6    14    1
    14     7     9   ar
    15     7    15    1
    16     8     9   ar
    17     8    16    1
    18    10    11    1
    19    10    17    1
    20    11    18    1
    21    11    19    1
