@<TRIPOS>MOLECULE
IMPHY010630
 41 46 0 0 0
SMALL
GASTEIGER

@<TRIPOS>ATOM
      1 O           9.0898   -4.6705    0.0000 O.3     1  UNL1       -0.4740
      2 C          10.2426   -5.3208    0.0000 C.3     1  UNL1        0.1958
      3 C          10.2426   -6.6363    0.0000 C.3     1  UNL1        0.1174
      4 C           9.0898   -7.2866    0.0000 C.2     1  UNL1        0.1831
      5 C           7.9665   -6.6363    0.0000 C.ar    1  UNL1        0.1078
      6 C           6.8284   -7.2866    0.0000 C.ar    1  UNL1        0.2044
      7 C           5.6903   -6.6215    0.0000 C.ar    1  UNL1        0.0783
      8 C           5.6903   -5.3208    0.0000 C.ar    1  UNL1        0.2018
      9 C           6.8284   -4.6705    0.0000 C.ar    1  UNL1        0.0792
     10 C           7.9665   -5.3208    0.0000 C.ar    1  UNL1        0.1479
     11 C          11.3659   -4.6705    0.0000 C.ar    1  UNL1        0.0178
     12 C          12.5040   -5.3208    0.0000 C.ar    1  UNL1        0.0025
     13 C          13.6568   -4.6705    0.0000 C.ar    1  UNL1        0.0418
     14 C          13.6568   -3.3551    0.0000 C.ar    1  UNL1        0.1957
     15 C          12.5040   -2.7048    0.0000 C.ar    1  UNL1        0.0418
     16 C          11.3659   -3.3551    0.0000 C.ar    1  UNL1        0.0025
     17 O           9.0898   -8.6020    0.0000 O.2     1  UNL1       -0.2910
     18 O           6.8284   -8.6020    0.0000 O.3     1  UNL1       -0.2863
     19 C           4.5523   -7.2866    0.0000 C.ar    1  UNL1        0.0125
     20 C           3.4290   -6.6363    0.0000 C.ar    1  UNL1        0.0383
     21 C           2.2761   -7.2866    0.0000 C.ar    1  UNL1        0.0484
     22 C           2.2761   -8.6020    0.0000 C.ar    1  UNL1        0.2344
     23 C           3.4142   -9.2671    0.0000 C.ar    1  UNL1        0.2343
     24 C           4.5523   -8.6020    0.0000 C.ar    1  UNL1        0.0457
     25 O           4.5523   -4.6705    0.0000 O.3     1  UNL1       -0.2864
     26 O          14.7801   -2.7048    0.0000 O.3     1  UNL1       -0.2866
     27 C           3.4290   -4.6262    0.0000 C.ar    1  UNL1        0.1485
     28 O           2.2761   -3.9611    0.0000 O.2     1  UNL1       -0.4531
     29 C           2.2761   -2.6309    0.0000 C.ar    1  UNL1        0.1546
     30 C           3.4290   -1.9805    0.0000 C.ar    1  UNL1        0.1126
     31 C           4.5671   -2.6309    0.0000 C.ar    1  UNL1        0.2048
     32 C           4.5671   -3.9611    0.0000 C.ar    1  UNL1        0.0797
     33 C           1.1381   -1.9805    0.0000 C.ar    1  UNL1        0.0798
     34 C           1.1381   -0.6651    0.0000 C.ar    1  UNL1        0.2020
     35 C           2.2761    0.0000    0.0000 C.ar    1  UNL1        0.0843
     36 C           3.4290   -0.6651    0.0000 C.ar    1  UNL1        0.2049
     37 O           1.1381   -9.2671    0.0000 O.3     1  UNL1       -0.2831
     38 O           3.4142  -10.5678    0.0000 O.3     1  UNL1       -0.2831
     39 O           5.7051   -1.9805    0.0000 O.2     1  UNL1       -0.2862
     40 O           0.0000    0.0000    0.0000 O.3     1  UNL1       -0.2864
     41 O           4.5671    0.0000    0.0000 O.3     1  UNL1       -0.2862
@<TRIPOS>BOND
     1     1    10    1
     2     1     2    1
     3     2     3    1
     4     2    11    1
     5     3     4    1
     6     4     5    1
     7     4    17    2
     8     5     6   ar
     9     5    10   ar
    10     6     7   ar
    11     6    18    1
    12     7    19    1
    13     7     8   ar
    14     8     9   ar
    15     8    25    1
    16     9    10   ar
    17    11    12   ar
    18    11    16   ar
    19    12    13   ar
    20    13    14   ar
    21    14    15   ar
    22    14    26    1
    23    15    16   ar
    24    19    20   ar
    25    19    24   ar
    26    20    27    1
    27    20    21   ar
    28    21    22   ar
    29    22    23   ar
    30    22    37    1
    31    23    24   ar
    32    23    38    1
    33    27    28   ar
    34    27    32   ar
    35    28    29   ar
    36    29    33   ar
    37    29    30   ar
    38    30    36   ar
    39    30    31   ar
    40    31    32   ar
    41    31    39    2
    42    33    34   ar
    43    34    35   ar
    44    34    40    1
    45    35    36   ar
    46    36    41    1
