@<TRIPOS>MOLECULE
IMPHY012129
 23 22 0 0 0
SMALL
GASTEIGER

@<TRIPOS>ATOM
      1 O           3.7320    0.2500    0.0000 O.3     1  UNL1       -0.4617
      2 O           4.5981   -1.2500    0.0000 O.2     1  UNL1       -0.2505
      3 C           5.4641    0.2500    0.0000 C.3     1  UNL1        0.0508
      4 C           2.8660   -0.2500    0.0000 C.3     1  UNL1        0.0975
      5 C           4.5981   -0.2500    0.0000 C.2     1  UNL1        0.3099
      6 C           6.3301   -0.2500    0.0000 C.3     1  UNL1       -0.0525
      7 C           5.4641    1.2500    0.0000 C.3     1  UNL1       -0.0525
      8 C           2.0000    0.2500    0.0000 C.3     1  UNL1       -0.0280
      9 C           2.8660   -1.2500    0.0000 C.3     1  UNL1       -0.0280
     10 H           5.4641   -0.3700    0.0000 H       1  UNL1        0.0408
     11 H           2.8660    0.3700    0.0000 H       1  UNL1        0.0728
     12 H           6.0201   -0.7869    0.0000 H       1  UNL1        0.0237
     13 H           6.8671   -0.5600    0.0000 H       1  UNL1        0.0237
     14 H           6.6401    0.2869    0.0000 H       1  UNL1        0.0237
     15 H           6.0841    1.2500    0.0000 H       1  UNL1        0.0237
     16 H           5.4641    1.8700    0.0000 H       1  UNL1        0.0237
     17 H           4.8441    1.2500    0.0000 H       1  UNL1        0.0237
     18 H           2.3100    0.7869    0.0000 H       1  UNL1        0.0265
     19 H           1.4631    0.5600    0.0000 H       1  UNL1        0.0265
     20 H           1.6900   -0.2869    0.0000 H       1  UNL1        0.0265
     21 H           2.2460   -1.2500    0.0000 H       1  UNL1        0.0265
     22 H           2.8660   -1.8700    0.0000 H       1  UNL1        0.0265
     23 H           3.4860   -1.2500    0.0000 H       1  UNL1        0.0265
@<TRIPOS>BOND
     1     1     4    1
     2     1     5    1
     3     2     5    2
     4     3     5    1
     5     3     6    1
     6     3     7    1
     7     3    10    1
     8     4     8    1
     9     4     9    1
    10     4    11    1
    11     6    12    1
    12     6    13    1
    13     6    14    1
    14     7    15    1
    15     7    16    1
    16     7    17    1
    17     8    18    1
    18     8    19    1
    19     8    20    1
    20     9    21    1
    21     9    22    1
    22     9    23    1
