@<TRIPOS>MOLECULE
IMPHY003774
 58 60 0 0 0
SMALL
GASTEIGER

@<TRIPOS>ATOM
      1 O           8.0901   -1.8017    0.0000 O.2     1  UNL1       -0.4618
      2 O           3.7320   -1.2671    0.0000 O.3     1  UNL1       -0.3872
      3 O           6.3301    1.2329    0.0000 O.3     1  UNL1       -0.5055
      4 O           4.5981   -1.7671    0.0000 O.3     1  UNL1       -0.5063
      5 O           8.0785    1.2675    0.0000 O.2     1  UNL1       -0.2863
      6 O          10.7321   -1.2396    0.0000 O.3     1  UNL1       -0.5058
      7 O          12.4525    1.7671    0.0000 O.3     1  UNL1       -0.5064
      8 C           5.4641   -0.2671    0.0000 C.ar    1  UNL1        0.0391
      9 C           4.5981    0.2329    0.0000 C.3     1  UNL1        0.0092
     10 C           7.1962   -0.2671    0.0000 C.ar    1  UNL1        0.1063
     11 C           3.7320   -0.2671    0.0000 C.3     1  UNL1        0.0799
     12 C           6.3301    0.2329    0.0000 C.ar    1  UNL1        0.1379
     13 C           7.1962   -1.2671    0.0000 C.ar    1  UNL1        0.1454
     14 C           8.9962   -0.2463    0.0000 C.ar    1  UNL1        0.0679
     15 C           5.4641   -1.2671    0.0000 C.ar    1  UNL1        0.1271
     16 C           8.0901    0.2676    0.0000 C.ar    1  UNL1        0.2038
     17 C           9.8602    0.2571    0.0000 C.ar    1  UNL1        0.0307
     18 C           6.3301   -1.7671    0.0000 C.ar    1  UNL1        0.0233
     19 C          11.5923    0.2638    0.0000 C.ar    1  UNL1        0.0397
     20 C          10.7282   -0.2396    0.0000 C.ar    1  UNL1        0.1317
     21 C           2.8660    0.2329    0.0000 C.2     1  UNL1       -0.0513
     22 C           8.9962   -1.2879    0.0000 C.ar    1  UNL1        0.1040
     23 C          12.4602   -0.2329    0.0000 C.3     1  UNL1       -0.0023
     24 C           9.8564    1.2571    0.0000 C.ar    1  UNL1       -0.0469
     25 C          11.5884    1.2637    0.0000 C.ar    1  UNL1        0.1238
     26 C          10.7205    1.7604    0.0000 C.ar    1  UNL1       -0.0191
     27 C           2.0000   -0.2671    0.0000 C.3     1  UNL1       -0.0416
     28 C          13.3243    0.2704    0.0000 C.2     1  UNL1       -0.0807
     29 C           2.8660    1.2329    0.0000 C.2     1  UNL1       -0.0973
     30 C          14.1923   -0.2262    0.0000 C.2     1  UNL1       -0.0793
     31 C          15.0564    0.2771    0.0000 C.3     1  UNL1       -0.0440
     32 C          14.1961   -1.2262    0.0000 C.3     1  UNL1       -0.0440
     33 H           4.9966    0.7079    0.0000 H       1  UNL1        0.0344
     34 H           4.1996    0.7079    0.0000 H       1  UNL1        0.0344
     35 H           4.2690   -0.5771    0.0000 H       1  UNL1        0.0643
     36 H           6.3301   -2.3871    0.0000 H       1  UNL1        0.0691
     37 H           9.5319   -1.6000    0.0000 H       1  UNL1        0.1037
     38 H          12.0635   -0.7094    0.0000 H       1  UNL1        0.0358
     39 H          12.8606   -0.7063    0.0000 H       1  UNL1        0.0358
     40 H           9.3183    1.5650    0.0000 H       1  UNL1        0.0626
     41 H          10.7181    2.3804    0.0000 H       1  UNL1        0.0654
     42 H           1.6900    0.2699    0.0000 H       1  UNL1        0.0275
     43 H           1.4631   -0.5771    0.0000 H       1  UNL1        0.0275
     44 H           2.3100   -0.8040    0.0000 H       1  UNL1        0.0275
     45 H           3.1951   -1.5771    0.0000 H       1  UNL1        0.2102
     46 H           5.7932    1.5429    0.0000 H       1  UNL1        0.2922
     47 H          13.3219    0.8904    0.0000 H       1  UNL1        0.0575
     48 H           4.5981   -2.3871    0.0000 H       1  UNL1        0.2921
     49 H           3.4030    1.5429    0.0000 H       1  UNL1        0.0535
     50 H           2.3291    1.5429    0.0000 H       1  UNL1        0.0535
     51 H          11.2702   -1.5475    0.0000 H       1  UNL1        0.2922
     52 H          12.4501    2.3871    0.0000 H       1  UNL1        0.2921
     53 H          15.3684   -0.2586    0.0000 H       1  UNL1        0.0274
     54 H          13.5761   -1.2286    0.0000 H       1  UNL1        0.0274
     55 H          14.1985   -1.8462    0.0000 H       1  UNL1        0.0274
     56 H          14.8161   -1.2238    0.0000 H       1  UNL1        0.0274
     57 H          15.5921    0.5892    0.0000 H       1  UNL1        0.0274
     58 H          14.7443    0.8128    0.0000 H       1  UNL1        0.0274
@<TRIPOS>BOND
     1     1    13   ar
     2     1    22   ar
     3     2    11    1
     4     2    45    1
     5     3    12    1
     6     3    46    1
     7     4    15    1
     8     4    48    1
     9     5    16    2
    10     6    20    1
    11     6    51    1
    12     7    25    1
    13     7    52    1
    14     8     9    1
    15     8    12   ar
    16     8    15   ar
    17     9    11    1
    18     9    33    1
    19     9    34    1
    20    10    12   ar
    21    10    13   ar
    22    10    16   ar
    23    11    21    1
    24    11    35    1
    25    13    18   ar
    26    14    16   ar
    27    14    17    1
    28    14    22   ar
    29    15    18   ar
    30    17    20   ar
    31    17    24   ar
    32    18    36    1
    33    19    20   ar
    34    19    23    1
    35    19    25   ar
    36    21    27    1
    37    21    29    2
    38    22    37    1
    39    23    28    1
    40    23    38    1
    41    23    39    1
    42    24    26   ar
    43    24    40    1
    44    25    26   ar
    45    26    41    1
    46    27    42    1
    47    27    43    1
    48    27    44    1
    49    28    30    2
    50    28    47    1
    51    29    49    1
    52    29    50    1
    53    30    31    1
    54    30    32    1
    55    31    53    1
    56    31    57    1
    57    31    58    1
    58    32    54    1
    59    32    55    1
    60    32    56    1
