@<TRIPOS>MOLECULE
IMPHY016743
 15 14 0 0 0
SMALL
GASTEIGER

@<TRIPOS>ATOM
      1 S           4.2690   -0.0600    0.0000 S.3     1  UNL1       -0.0539
      2 S           6.0010   -0.0600    0.0000 S.3     1  UNL1       -0.0849
      3 S           5.1350    0.4400    0.0000 S.3     1  UNL1       -0.0200
      4 C           2.5369   -0.0600    0.0000 C.2     1  UNL1       -0.0801
      5 C           2.5369   -1.0600    0.0000 C.3     1  UNL1       -0.0460
      6 C           3.4030    0.4400    0.0000 C.2     1  UNL1       -0.0212
      7 C           6.8671    0.4400    0.0000 C.3     1  UNL1       -0.0070
      8 H           2.0000    0.2500    0.0000 H       1  UNL1        0.0574
      9 H           1.9169   -1.0600    0.0000 H       1  UNL1        0.0272
     10 H           2.5369   -1.6800    0.0000 H       1  UNL1        0.0272
     11 H           3.1569   -1.0600    0.0000 H       1  UNL1        0.0272
     12 H           3.4030    1.0600    0.0000 H       1  UNL1        0.0695
     13 H           7.1771   -0.0969    0.0000 H       1  UNL1        0.0349
     14 H           7.4040    0.7500    0.0000 H       1  UNL1        0.0349
     15 H           6.5571    0.9769    0.0000 H       1  UNL1        0.0349
@<TRIPOS>BOND
     1     1     3    1
     2     1     6    1
     3     2     3    1
     4     2     7    1
     5     4     5    1
     6     4     6    2
     7     4     8    1
     8     5     9    1
     9     5    10    1
    10     5    11    1
    11     6    12    1
    12     7    13    1
    13     7    14    1
    14     7    15    1
