@<TRIPOS>MOLECULE
IMPHY013258
 40 42 0 0 0
SMALL
GASTEIGER

@<TRIPOS>ATOM
      1 O           6.0290   -1.0209    0.0000 O.3     1  UNL1       -0.4826
      2 O           4.2690    2.0137    0.0000 O.3     1  UNL1       -0.4939
      3 O           6.0174    2.0483    0.0000 O.2     1  UNL1       -0.2917
      4 O           2.5369   -0.9863    0.0000 O.3     1  UNL1       -0.5060
      5 C           6.9350   -0.5071    0.0000 C.3     1  UNL1        0.1322
      6 C           6.9350    0.5346    0.0000 C.3     1  UNL1        0.0520
      7 C           5.1350    0.5137    0.0000 C.ar    1  UNL1        0.1014
      8 C           5.1350   -0.4863    0.0000 C.ar    1  UNL1        0.1418
      9 C           6.0290    1.0484    0.0000 C.2     1  UNL1        0.1740
     10 C           4.2690   -0.9863    0.0000 C.ar    1  UNL1        0.0338
     11 C           7.7991   -1.0104    0.0000 C.ar    1  UNL1       -0.0069
     12 C           4.2690    1.0137    0.0000 C.ar    1  UNL1        0.1405
     13 C           3.4030    0.5137    0.0000 C.ar    1  UNL1        0.0337
     14 C           3.4030   -0.4863    0.0000 C.ar    1  UNL1        0.1296
     15 C           4.2690   -1.9863    0.0000 C.3     1  UNL1       -0.0327
     16 C           7.7953   -2.0104    0.0000 C.ar    1  UNL1       -0.0551
     17 C           8.6671   -0.5138    0.0000 C.ar    1  UNL1       -0.0551
     18 C           2.5369    1.0137    0.0000 C.3     1  UNL1       -0.0327
     19 C           8.6594   -2.5137    0.0000 C.ar    1  UNL1       -0.0614
     20 C           9.5312   -1.0171    0.0000 C.ar    1  UNL1       -0.0614
     21 C           9.5273   -2.0171    0.0000 C.ar    1  UNL1       -0.0617
     22 C           3.4030    2.5137    0.0000 C.3     1  UNL1        0.0788
     23 H           7.4726   -0.1981    0.0000 H       1  UNL1        0.0789
     24 H           7.5459    0.4285    0.0000 H       1  UNL1        0.0385
     25 H           7.1441    1.1182    0.0000 H       1  UNL1        0.0385
     26 H           3.6490   -1.9863    0.0000 H       1  UNL1        0.0280
     27 H           4.2690   -2.6063    0.0000 H       1  UNL1        0.0280
     28 H           4.8890   -1.9863    0.0000 H       1  UNL1        0.0280
     29 H           7.2571   -2.3183    0.0000 H       1  UNL1        0.0621
     30 H           8.6694    0.1062    0.0000 H       1  UNL1        0.0621
     31 H           2.8469    1.5507    0.0000 H       1  UNL1        0.0280
     32 H           2.0000    1.3237    0.0000 H       1  UNL1        0.0280
     33 H           2.2269    0.4768    0.0000 H       1  UNL1        0.0280
     34 H           8.6570   -3.1337    0.0000 H       1  UNL1        0.0618
     35 H          10.0693   -0.7092    0.0000 H       1  UNL1        0.0618
     36 H           2.0000   -0.6763    0.0000 H       1  UNL1        0.2922
     37 H          10.0630   -2.3292    0.0000 H       1  UNL1        0.0618
     38 H           3.7130    3.0507    0.0000 H       1  UNL1        0.0660
     39 H           2.8660    2.8237    0.0000 H       1  UNL1        0.0660
     40 H           3.0930    1.9768    0.0000 H       1  UNL1        0.0660
@<TRIPOS>BOND
     1     1     5    1
     2     1     8    1
     3     2    12    1
     4     2    22    1
     5     3     9    2
     6     4    14    1
     7     4    36    1
     8     5     6    1
     9     5    11    1
    10     5    23    1
    11     6     9    1
    12     6    24    1
    13     6    25    1
    14     7     8   ar
    15     7     9    1
    16     7    12   ar
    17     8    10   ar
    18    10    14   ar
    19    10    15    1
    20    11    16   ar
    21    11    17   ar
    22    12    13   ar
    23    13    14   ar
    24    13    18    1
    25    15    26    1
    26    15    27    1
    27    15    28    1
    28    16    19   ar
    29    16    29    1
    30    17    20   ar
    31    17    30    1
    32    18    31    1
    33    18    32    1
    34    18    33    1
    35    19    21   ar
    36    19    34    1
    37    20    21   ar
    38    20    35    1
    39    21    37    1
    40    22    38    1
    41    22    39    1
    42    22    40    1
