@<TRIPOS>MOLECULE
IMPHY013720
 67 70 0 0 0
SMALL
GASTEIGER

@<TRIPOS>ATOM
      1 O           6.0010    0.5950    0.0000 O.2     1  UNL1       -0.4702
      2 O           6.8671   -0.9050    0.0000 O.3     1  UNL1       -0.3096
      3 O          10.2629    1.0950    0.0000 O.3     1  UNL1       -0.4580
      4 O           5.1350   -0.9050    0.0000 O.3     1  UNL1       -0.3404
      5 O           6.8671   -2.9050    0.0000 O.3     1  UNL1       -0.3841
      6 O           6.0010    3.5950    0.0000 O.3     1  UNL1       -0.4773
      7 O           5.1350   -3.9050    0.0000 O.3     1  UNL1       -0.3864
      8 O           7.7331    3.5950    0.0000 O.2     1  UNL1       -0.2454
      9 O           3.4030   -2.9050    0.0000 O.3     1  UNL1       -0.3865
     10 O          10.2629    2.8270    0.0000 O.2     1  UNL1       -0.2456
     11 O           2.5369   -1.4050    0.0000 O.3     1  UNL1       -0.3924
     12 O          16.2629    2.8270    0.0000 O.3     1  UNL1       -0.5068
     13 C           7.7331    0.5950    0.0000 C.3     1  UNL1        0.0348
     14 C           7.7331    1.5950    0.0000 C.3     1  UNL1        0.0060
     15 C           8.6793    0.2903    0.0000 C.3     1  UNL1        0.0024
     16 C           9.2629    1.0950    0.0000 C.3     1  UNL1        0.1070
     17 C           8.6793    1.8997    0.0000 C.3     1  UNL1       -0.0078
     18 C           6.8671    0.0950    0.0000 C.3     1  UNL1        0.2072
     19 C           6.8671    2.0950    0.0000 C.2     1  UNL1        0.0742
     20 C           8.9900   -0.6603    0.0000 C.3     1  UNL1       -0.0586
     21 C           6.0010    1.5950    0.0000 C.2     1  UNL1        0.0981
     22 C           6.0010   -1.4050    0.0000 C.3     1  UNL1        0.1918
     23 C           6.0010   -2.4050    0.0000 C.3     1  UNL1        0.1342
     24 C           6.8671    3.0950    0.0000 C.2     1  UNL1        0.3360
     25 C           5.1350   -2.9050    0.0000 C.3     1  UNL1        0.1141
     26 C           4.2690   -2.4050    0.0000 C.3     1  UNL1        0.1119
     27 C           4.2690   -1.4050    0.0000 C.3     1  UNL1        0.1130
     28 C          10.7629    1.9610    0.0000 C.2     1  UNL1        0.3322
     29 C           3.4030   -0.9050    0.0000 C.3     1  UNL1        0.0730
     30 C          11.7629    1.9610    0.0000 C.2     1  UNL1        0.0231
     31 C          12.2629    2.8270    0.0000 C.2     1  UNL1       -0.0478
     32 C          13.2629    2.8270    0.0000 C.ar    1  UNL1       -0.0246
     33 C          13.7629    3.6931    0.0000 C.ar    1  UNL1       -0.0511
     34 C          13.7629    1.9610    0.0000 C.ar    1  UNL1       -0.0511
     35 C          14.7629    3.6931    0.0000 C.ar    1  UNL1       -0.0196
     36 C          14.7629    1.9610    0.0000 C.ar    1  UNL1       -0.0196
     37 C          15.2629    2.8270    0.0000 C.ar    1  UNL1        0.1169
     38 H           7.8230   -0.2502    0.0000 H       1  UNL1        0.0371
     39 H           7.8230    2.4402    0.0000 H       1  UNL1        0.0358
     40 H           8.2418   -0.1491    0.0000 H       1  UNL1        0.0339
     41 H           9.5446    0.5427    0.0000 H       1  UNL1        0.0737
     42 H           9.2167    2.2090    0.0000 H       1  UNL1        0.0307
     43 H           8.4283    2.4666    0.0000 H       1  UNL1        0.0307
     44 H           7.4040   -0.2150    0.0000 H       1  UNL1        0.1059
     45 H           8.4006   -0.8529    0.0000 H       1  UNL1        0.0234
     46 H           9.1826   -1.2496    0.0000 H       1  UNL1        0.0234
     47 H           9.5793   -0.4676    0.0000 H       1  UNL1        0.0234
     48 H           5.4641    1.9050    0.0000 H       1  UNL1        0.1029
     49 H           6.0010   -0.7850    0.0000 H       1  UNL1        0.0939
     50 H           6.0010   -3.0250    0.0000 H       1  UNL1        0.0671
     51 H           4.5981   -3.2150    0.0000 H       1  UNL1        0.0648
     52 H           4.2690   -3.0250    0.0000 H       1  UNL1        0.0647
     53 H           4.2690   -0.7850    0.0000 H       1  UNL1        0.0647
     54 H           3.8015   -0.4301    0.0000 H       1  UNL1        0.0584
     55 H           3.0044   -0.4301    0.0000 H       1  UNL1        0.0584
     56 H           6.8671   -3.5250    0.0000 H       1  UNL1        0.2101
     57 H           6.0010    4.2150    0.0000 H       1  UNL1        0.2954
     58 H           4.5981   -4.2150    0.0000 H       1  UNL1        0.2100
     59 H           3.4030   -3.5250    0.0000 H       1  UNL1        0.2100
     60 H          12.0729    1.4241    0.0000 H       1  UNL1        0.0689
     61 H           2.0000   -1.0950    0.0000 H       1  UNL1        0.2095
     62 H          11.9529    3.3640    0.0000 H       1  UNL1        0.0626
     63 H          13.4529    4.2300    0.0000 H       1  UNL1        0.0625
     64 H          13.4529    1.4241    0.0000 H       1  UNL1        0.0625
     65 H          15.0729    4.2300    0.0000 H       1  UNL1        0.0654
     66 H          15.0729    1.4241    0.0000 H       1  UNL1        0.0654
     67 H          16.5729    3.3640    0.0000 H       1  UNL1        0.2921
@<TRIPOS>BOND
     1     1    18    1
     2     1    21    1
     3    18     2    1
     4    22     2    1
     5    16     3    1
     6     3    28    1
     7     4    22    1
     8     4    27    1
     9    23     5    1
    10     5    56    1
    11     6    24    1
    12     6    57    1
    13    25     7    1
    14     7    58    1
    15     8    24    2
    16    26     9    1
    17     9    59    1
    18    10    28    2
    19    11    29    1
    20    11    61    1
    21    12    37    1
    22    12    67    1
    23    13    14    1
    24    13    15    1
    25    13    18    1
    26    13    38    1
    27    14    17    1
    28    14    19    1
    29    14    39    1
    30    15    16    1
    31    15    20    1
    32    15    40    1
    33    16    17    1
    34    16    41    1
    35    17    42    1
    36    17    43    1
    37    18    44    1
    38    19    21    2
    39    19    24    1
    40    20    45    1
    41    20    46    1
    42    20    47    1
    43    21    48    1
    44    22    23    1
    45    22    49    1
    46    23    25    1
    47    23    50    1
    48    25    26    1
    49    25    51    1
    50    26    27    1
    51    26    52    1
    52    27    29    1
    53    27    53    1
    54    28    30    1
    55    29    54    1
    56    29    55    1
    57    30    31    2
    58    30    60    1
    59    31    32    1
    60    31    62    1
    61    32    33   ar
    62    32    34   ar
    63    33    35   ar
    64    33    63    1
    65    34    36   ar
    66    34    64    1
    67    35    37   ar
    68    35    65    1
    69    36    37   ar
    70    36    66    1
