@<TRIPOS>MOLECULE
IMPHY008243
 76 79 0 0 0
SMALL
GASTEIGER

@<TRIPOS>ATOM
      1 C           6.5251   -0.6074    0.0000 C.3     1  UNL1       -0.0259
      2 C           6.5251   -1.6074    0.0000 C.3     1  UNL1       -0.0323
      3 C           5.6591   -2.1074    0.0000 C.3     1  UNL1       -0.0344
      4 C           4.7931   -1.6074    0.0000 C.3     1  UNL1       -0.0323
      5 C           3.8831   -2.1143    0.0000 C.3     1  UNL1       -0.0261
      6 C           7.4714   -0.3027    0.0000 C.3     1  UNL1       -0.0328
      7 C           5.6591   -0.1074    0.0000 C.3     1  UNL1       -0.0468
      8 C           4.7931   -0.6074    0.0000 C.3     1  UNL1       -0.0489
      9 C           3.8751   -3.1559    0.0000 C.3     1  UNL1       -0.0354
     10 C           7.4714   -1.9122    0.0000 C.3     1  UNL1       -0.0492
     11 C           5.6752   -3.1489    0.0000 C.3     1  UNL1       -0.0494
     12 C           8.0550   -1.1074    0.0000 C.3     1  UNL1       -0.0492
     13 C           4.7771   -3.6767    0.0000 C.3     1  UNL1       -0.0494
     14 C           2.9562   -1.5502    0.0000 C.3     1  UNL1       -0.0471
     15 C           6.5251    0.3926    0.0000 C.3     1  UNL1       -0.0590
     16 C           7.7820    0.6478    0.0000 C.3     1  UNL1       -0.0405
     17 C           2.9396   -3.7056    0.0000 C.3     1  UNL1       -0.0497
     18 C           3.8908   -1.1143    0.0000 C.3     1  UNL1       -0.0590
     19 C           2.0084   -2.0781    0.0000 C.3     1  UNL1       -0.0525
     20 C           2.0000   -3.1631    0.0000 C.3     1  UNL1       -0.0528
     21 C           8.7605    0.8540    0.0000 C.3     1  UNL1       -0.0497
     22 C           7.1142    1.3921    0.0000 C.3     1  UNL1       -0.0621
     23 C           9.0712    1.8046    0.0000 C.3     1  UNL1       -0.0465
     24 C          10.0497    2.0108    0.0000 C.3     1  UNL1       -0.0232
     25 C          10.7175    1.2665    0.0000 C.3     1  UNL1       -0.0587
     26 C          10.3604    2.9613    0.0000 C.2     1  UNL1       -0.0769
     27 C          11.3389    3.1675    0.0000 C.3     1  UNL1       -0.0438
     28 C           9.6925    3.7056    0.0000 C.2     1  UNL1       -0.0995
     29 H           6.6151   -2.4527    0.0000 H       1  UNL1        0.0309
     30 H           6.3985   -2.5267    0.0000 H       1  UNL1        0.0306
     31 H           5.5292   -1.1824    0.0000 H       1  UNL1        0.0309
     32 H           8.3111   -0.1708    0.0000 H       1  UNL1        0.0309
     33 H           6.0576    0.3675    0.0000 H       1  UNL1        0.0271
     34 H           5.2606    0.3675    0.0000 H       1  UNL1        0.0271
     35 H           4.5810   -0.0248    0.0000 H       1  UNL1        0.0268
     36 H           4.1825   -0.7151    0.0000 H       1  UNL1        0.0268
     37 H           3.8774   -3.7759    0.0000 H       1  UNL1        0.0306
     38 H           7.2203   -2.4791    0.0000 H       1  UNL1        0.0268
     39 H           8.0087   -2.2214    0.0000 H       1  UNL1        0.0268
     40 H           5.8932   -3.7293    0.0000 H       1  UNL1        0.0268
     41 H           6.2843   -3.0334    0.0000 H       1  UNL1        0.0268
     42 H           8.5158   -1.5222    0.0000 H       1  UNL1        0.0268
     43 H           8.5158   -0.6927    0.0000 H       1  UNL1        0.0268
     44 H           4.3798   -4.1527    0.0000 H       1  UNL1        0.0268
     45 H           5.1781   -4.1496    0.0000 H       1  UNL1        0.0268
     46 H           3.3645   -1.0835    0.0000 H       1  UNL1        0.0271
     47 H           2.5663   -1.0682    0.0000 H       1  UNL1        0.0271
     48 H           7.1451    0.3926    0.0000 H       1  UNL1        0.0235
     49 H           6.5251    1.0126    0.0000 H       1  UNL1        0.0235
     50 H           5.9051    0.3926    0.0000 H       1  UNL1        0.0235
     51 H           7.9746    1.2371    0.0000 H       1  UNL1        0.0301
     52 H           2.5423   -4.1816    0.0000 H       1  UNL1        0.0268
     53 H           3.3406   -4.1785    0.0000 H       1  UNL1        0.0268
     54 H           4.5108   -1.1191    0.0000 H       1  UNL1        0.0235
     55 H           3.8956   -0.4943    0.0000 H       1  UNL1        0.0235
     56 H           3.2708   -1.1095    0.0000 H       1  UNL1        0.0235
     57 H           1.8038   -1.4929    0.0000 H       1  UNL1        0.0265
     58 H           1.3967   -2.1795    0.0000 H       1  UNL1        0.0265
     59 H           1.3900   -3.0523    0.0000 H       1  UNL1        0.0265
     60 H           1.7864   -3.7452    0.0000 H       1  UNL1        0.0265
     61 H           8.7811    0.2344    0.0000 H       1  UNL1        0.0268
     62 H           9.3743    0.7667    0.0000 H       1  UNL1        0.0268
     63 H           7.5756    1.8062    0.0000 H       1  UNL1        0.0233
     64 H           6.7001    1.8536    0.0000 H       1  UNL1        0.0233
     65 H           6.6527    0.9781    0.0000 H       1  UNL1        0.0233
     66 H           9.0506    2.4242    0.0000 H       1  UNL1        0.0271
     67 H           8.4574    1.8919    0.0000 H       1  UNL1        0.0271
     68 H           9.8571    1.4215    0.0000 H       1  UNL1        0.0343
     69 H          10.2561    0.8524    0.0000 H       1  UNL1        0.0235
     70 H          11.1316    0.8050    0.0000 H       1  UNL1        0.0235
     71 H          11.1790    1.6805    0.0000 H       1  UNL1        0.0235
     72 H          11.4667    2.5608    0.0000 H       1  UNL1        0.0274
     73 H          11.9455    3.2954    0.0000 H       1  UNL1        0.0274
     74 H          11.2110    3.7742    0.0000 H       1  UNL1        0.0274
     75 H           9.8851    4.2949    0.0000 H       1  UNL1        0.0534
     76 H           9.0858    3.5778    0.0000 H       1  UNL1        0.0534
@<TRIPOS>BOND
     1     1     2    1
     2     1     6    1
     3     1     7    1
     4     1    15    1
     5     2     3    1
     6     2    10    1
     7     2    29    1
     8     3     4    1
     9     3    11    1
    10     3    30    1
    11     4     5    1
    12     4     8    1
    13     4    31    1
    14     5     9    1
    15     5    14    1
    16     5    18    1
    17     6    12    1
    18     6    16    1
    19     6    32    1
    20     7     8    1
    21     7    33    1
    22     7    34    1
    23     8    35    1
    24     8    36    1
    25     9    13    1
    26     9    17    1
    27     9    37    1
    28    10    12    1
    29    10    38    1
    30    10    39    1
    31    11    13    1
    32    11    40    1
    33    11    41    1
    34    12    42    1
    35    12    43    1
    36    13    44    1
    37    13    45    1
    38    14    19    1
    39    14    46    1
    40    14    47    1
    41    15    48    1
    42    15    49    1
    43    15    50    1
    44    16    21    1
    45    16    22    1
    46    16    51    1
    47    17    20    1
    48    17    52    1
    49    17    53    1
    50    18    54    1
    51    18    55    1
    52    18    56    1
    53    19    20    1
    54    19    57    1
    55    19    58    1
    56    20    59    1
    57    20    60    1
    58    21    23    1
    59    21    61    1
    60    21    62    1
    61    22    63    1
    62    22    64    1
    63    22    65    1
    64    23    24    1
    65    23    66    1
    66    23    67    1
    67    24    25    1
    68    24    26    1
    69    24    68    1
    70    25    69    1
    71    25    70    1
    72    25    71    1
    73    26    27    1
    74    26    28    2
    75    27    72    1
    76    27    73    1
    77    27    74    1
    78    28    75    1
    79    28    76    1
