@<TRIPOS>MOLECULE
IMPHY014220
 37 39 0 0 0
SMALL
GASTEIGER

@<TRIPOS>ATOM
      1 O           2.8641   -0.6585    0.0000 O.3     1  UNL1       -0.3690
      2 O           5.5301    1.8623    0.0000 O.3     1  UNL1       -0.5057
      3 O           9.0602    0.8864    0.0000 O.2     1  UNL1       -0.4911
      4 O           7.2785    1.8969    0.0000 O.2     1  UNL1       -0.2832
      5 O           7.2785   -2.1723    0.0000 O.2     1  UNL1       -0.2871
      6 C           3.7702    0.8970    0.0000 C.3     1  UNL1        0.0023
      7 C           4.6641    0.3623    0.0000 C.ar    1  UNL1        0.0028
      8 C           2.8641    0.3831    0.0000 C.3     1  UNL1        0.0607
      9 C           4.6641   -0.6377    0.0000 C.ar    1  UNL1       -0.0117
     10 C           3.7702   -1.1724    0.0000 C.3     1  UNL1        0.0815
     11 C           5.5301    0.8623    0.0000 C.ar    1  UNL1        0.1320
     12 C           5.5301   -1.1377    0.0000 C.ar    1  UNL1       -0.0441
     13 C           6.3961    0.3623    0.0000 C.ar    1  UNL1        0.0778
     14 C           6.3961   -0.6377    0.0000 C.ar    1  UNL1        0.0366
     15 C           2.0000    0.8864    0.0000 C.3     1  UNL1       -0.0384
     16 C           3.7817   -2.1723    0.0000 C.3     1  UNL1       -0.0345
     17 C           7.2901    0.8970    0.0000 C.2     1  UNL1        0.2316
     18 C           7.2901   -1.1724    0.0000 C.2     1  UNL1        0.1905
     19 C           8.1962    0.3831    0.0000 C.2     1  UNL1        0.1709
     20 C           8.1962   -0.6585    0.0000 C.2     1  UNL1        0.0312
     21 C           9.9282    0.3898    0.0000 C.3     1  UNL1        0.0790
     22 H           4.1748    1.3668    0.0000 H       1  UNL1        0.0339
     23 H           3.3765    1.3760    0.0000 H       1  UNL1        0.0339
     24 H           2.3266    0.0741    0.0000 H       1  UNL1        0.0597
     25 H           3.2362   -1.4875    0.0000 H       1  UNL1        0.0644
     26 H           5.5301   -1.7577    0.0000 H       1  UNL1        0.0628
     27 H           2.3121    1.4222    0.0000 H       1  UNL1        0.0255
     28 H           1.4643    1.1985    0.0000 H       1  UNL1        0.0255
     29 H           1.6879    0.3507    0.0000 H       1  UNL1        0.0255
     30 H           3.1618   -2.1795    0.0000 H       1  UNL1        0.0258
     31 H           3.7889   -2.7923    0.0000 H       1  UNL1        0.0258
     32 H           4.4017   -2.1651    0.0000 H       1  UNL1        0.0258
     33 H           8.7319   -0.9706    0.0000 H       1  UNL1        0.0694
     34 H           4.9932    2.1723    0.0000 H       1  UNL1        0.2922
     35 H           9.6203   -0.1483    0.0000 H       1  UNL1        0.0660
     36 H          10.4663    0.0819    0.0000 H       1  UNL1        0.0660
     37 H          10.2361    0.9279    0.0000 H       1  UNL1        0.0660
@<TRIPOS>BOND
     1     1     8    1
     2     1    10    1
     3     2    11    1
     4     2    34    1
     5     3    19    1
     6     3    21    1
     7     4    17    2
     8     5    18    2
     9     6     7    1
    10     6     8    1
    11     6    22    1
    12     6    23    1
    13     7     9   ar
    14     7    11   ar
    15     8    15    1
    16     8    24    1
    17     9    10    1
    18     9    12   ar
    19    10    16    1
    20    10    25    1
    21    11    13   ar
    22    12    14   ar
    23    12    26    1
    24    13    14   ar
    25    13    17    1
    26    14    18    1
    27    15    27    1
    28    15    28    1
    29    15    29    1
    30    16    30    1
    31    16    31    1
    32    16    32    1
    33    17    19    1
    34    18    20    1
    35    19    20    2
    36    20    33    1
    37    21    35    1
    38    21    36    1
    39    21    37    1
