@<TRIPOS>MOLECULE
IMPHY010798
 32 34 0 0 0
SMALL
GASTEIGER

@<TRIPOS>ATOM
      1 O           4.6834   -1.6160    0.0000 O.3     1  UNL1       -0.4683
      2 O           5.3461   -1.7277    0.0000 O.3     1  UNL1       -0.4209
      3 O           2.3791    0.6016    0.0000 O.3     1  UNL1       -0.4683
      4 O           8.7752   -2.0478    0.0000 O.3     1  UNL1       -0.4683
      5 O           3.1630   -1.2908    0.0000 O.3     1  UNL1       -0.4654
      6 O           6.8828   -2.8316    0.0000 O.3     1  UNL1       -0.4654
      7 O           4.5287   -3.2547    0.0000 O.2     1  UNL1       -0.2497
      8 C           6.3476    2.4434    0.0000 C.3     1  UNL1        0.0047
      9 C           7.2715    2.0607    0.0000 C.3     1  UNL1        0.0047
     10 C           5.4237    2.0607    0.0000 C.3     1  UNL1        0.0266
     11 C           7.6541    1.1369    0.0000 C.3     1  UNL1        0.0266
     12 C           5.0410    1.1369    0.0000 C.ar    1  UNL1       -0.0160
     13 C           7.2715    0.2130    0.0000 C.ar    1  UNL1       -0.0159
     14 C           6.3476    3.4434    0.0000 C.3     1  UNL1        0.0004
     15 C           7.9786    2.7678    0.0000 C.3     1  UNL1        0.0004
     16 C           5.4237    0.2130    0.0000 C.ar    1  UNL1        0.0360
     17 C           6.3476   -0.1697    0.0000 C.ar    1  UNL1        0.0367
     18 C           4.0105    1.2887    0.0000 C.ar    1  UNL1        0.0360
     19 C           8.1075   -0.4083    0.0000 C.ar    1  UNL1        0.0360
     20 C           4.8024   -0.6231    0.0000 C.ar    1  UNL1        0.1751
     21 C           6.1957   -1.2002    0.0000 C.ar    1  UNL1        0.1848
     22 C           3.3701    0.4673    0.0000 C.ar    1  UNL1        0.1751
     23 C           7.9795   -1.4421    0.0000 C.ar    1  UNL1        0.1752
     24 C           3.7687   -0.4951    0.0000 C.ar    1  UNL1        0.2060
     25 C           7.0172   -1.8407    0.0000 C.ar    1  UNL1        0.2067
     26 C           3.7640   -2.0094    0.0000 C.3     1  UNL1        0.2526
     27 C           5.3782   -2.7272    0.0000 C.2     1  UNL1        0.3221
     28 C           2.0000    1.5269    0.0000 C.3     1  UNL1        0.2526
     29 C           9.6976   -1.6615    0.0000 C.3     1  UNL1        0.2526
     30 C           2.1710   -1.1641    0.0000 C.3     1  UNL1        0.2528
     31 C           7.6738   -3.4434    0.0000 C.3     1  UNL1        0.2528
     32 C           6.2599   -3.1992    0.0000 C.3     1  UNL1        0.1216
@<TRIPOS>BOND
     1     1    20    1
     2     1    26    1
     3     2    21    1
     4     2    27    1
     5     3    22    1
     6     3    28    1
     7     4    23    1
     8     4    29    1
     9     5    24    1
    10     5    30    1
    11     6    25    1
    12     6    31    1
    13     7    27    2
    14     8     9    1
    15     8    10    1
    16     8    14    1
    17     9    11    1
    18     9    15    1
    19    10    12    1
    20    11    13    1
    21    12    16   ar
    22    12    18   ar
    23    13    17   ar
    24    13    19   ar
    25    16    17    1
    26    16    20   ar
    27    17    21   ar
    28    18    22   ar
    29    19    23   ar
    30    20    24   ar
    31    21    25   ar
    32    22    24   ar
    33    23    25   ar
    34    27    32    1
