@<TRIPOS>MOLECULE
IMPHY000056
 45 45 0 0 0
SMALL
GASTEIGER

@<TRIPOS>ATOM
      1 O           8.0622    2.2306    0.0000 O.2     1  UNL1       -0.2706
      2 N           7.1962    3.7306    0.0000 N.am    1  UNL1       -0.2980
      3 C           6.6962    5.2694    0.0000 C.3     1  UNL1       -0.0357
      4 C           7.6962    5.2694    0.0000 C.3     1  UNL1       -0.0357
      5 C           8.0052    4.3184    0.0000 C.3     1  UNL1        0.0150
      6 C           6.3871    4.3184    0.0000 C.3     1  UNL1        0.0150
      7 C           3.7320   -2.2694    0.0000 C.3     1  UNL1       -0.0528
      8 C           3.7320   -3.2694    0.0000 C.3     1  UNL1       -0.0531
      9 C           7.1962    2.7306    0.0000 C.2     1  UNL1        0.2394
     10 C           4.5981   -1.7694    0.0000 C.3     1  UNL1       -0.0496
     11 C           2.8660   -3.7694    0.0000 C.3     1  UNL1       -0.0533
     12 C           4.5981   -0.7694    0.0000 C.3     1  UNL1       -0.0345
     13 C           2.8660   -4.7694    0.0000 C.3     1  UNL1       -0.0559
     14 C           6.3301    2.2306    0.0000 C.2     1  UNL1        0.0003
     15 C           5.4641   -0.2694    0.0000 C.2     1  UNL1       -0.0840
     16 C           2.0000   -5.2694    0.0000 C.3     1  UNL1       -0.0653
     17 C           6.3301    1.2306    0.0000 C.2     1  UNL1       -0.0571
     18 C           5.4641    0.7306    0.0000 C.2     1  UNL1       -0.0655
     19 H           6.7610    5.8860    0.0000 H       1  UNL1        0.0281
     20 H           6.0897    5.3983    0.0000 H       1  UNL1        0.0281
     21 H           8.3026    5.3983    0.0000 H       1  UNL1        0.0281
     22 H           7.6313    5.8860    0.0000 H       1  UNL1        0.0281
     23 H           5.8207    4.5705    0.0000 H       1  UNL1        0.0465
     24 H           6.0771    3.7814    0.0000 H       1  UNL1        0.0465
     25 H           8.3152    3.7814    0.0000 H       1  UNL1        0.0465
     26 H           8.5716    4.5705    0.0000 H       1  UNL1        0.0465
     27 H           3.5200   -1.6868    0.0000 H       1  UNL1        0.0265
     28 H           3.1215   -2.3771    0.0000 H       1  UNL1        0.0265
     29 H           3.9441   -3.8520    0.0000 H       1  UNL1        0.0265
     30 H           4.3426   -3.1618    0.0000 H       1  UNL1        0.0265
     31 H           4.8101   -2.3520    0.0000 H       1  UNL1        0.0268
     32 H           5.2087   -1.6618    0.0000 H       1  UNL1        0.0268
     33 H           2.6540   -3.1868    0.0000 H       1  UNL1        0.0265
     34 H           2.2554   -3.8771    0.0000 H       1  UNL1        0.0265
     35 H           4.3860   -0.1868    0.0000 H       1  UNL1        0.0307
     36 H           3.9875   -0.8771    0.0000 H       1  UNL1        0.0307
     37 H           3.0781   -5.3520    0.0000 H       1  UNL1        0.0263
     38 H           3.4766   -4.6618    0.0000 H       1  UNL1        0.0263
     39 H           5.7932    2.5406    0.0000 H       1  UNL1        0.0669
     40 H           6.0010   -0.5794    0.0000 H       1  UNL1        0.0572
     41 H           1.6900   -4.7325    0.0000 H       1  UNL1        0.0230
     42 H           1.4631   -5.5794    0.0000 H       1  UNL1        0.0230
     43 H           2.3100   -5.8064    0.0000 H       1  UNL1        0.0230
     44 H           6.8671    0.9206    0.0000 H       1  UNL1        0.0619
     45 H           4.9272    1.0406    0.0000 H       1  UNL1        0.0614
@<TRIPOS>BOND
     1     1     9    2
     2     2     5    1
     3     2     6    1
     4     2     9   am
     5     3     4    1
     6     3     6    1
     7     3    19    1
     8     3    20    1
     9     4     5    1
    10     4    21    1
    11     4    22    1
    12     5    25    1
    13     5    26    1
    14     6    23    1
    15     6    24    1
    16     7     8    1
    17     7    10    1
    18     7    27    1
    19     7    28    1
    20     8    11    1
    21     8    29    1
    22     8    30    1
    23     9    14    1
    24    10    12    1
    25    10    31    1
    26    10    32    1
    27    11    13    1
    28    11    33    1
    29    11    34    1
    30    12    15    1
    31    12    35    1
    32    12    36    1
    33    13    16    1
    34    13    37    1
    35    13    38    1
    36    14    17    2
    37    14    39    1
    38    15    18    2
    39    15    40    1
    40    16    41    1
    41    16    42    1
    42    16    43    1
    43    17    18    1
    44    17    44    1
    45    18    45    1
