@<TRIPOS>MOLECULE
IMPHY009347
 31 33 0 0 0
SMALL
GASTEIGER

@<TRIPOS>ATOM
      1 O           5.5301    1.8246    0.0000 O.2     1  UNL1       -0.2864
      2 O           5.5301   -2.1754    0.0000 O.2     1  UNL1       -0.2866
      3 O           3.7817    1.8592    0.0000 O.3     1  UNL1       -0.5060
      4 O           7.2785    1.8592    0.0000 O.3     1  UNL1       -0.5027
      5 O           9.0602    0.8488    0.0000 O.3     1  UNL1       -0.5009
      6 O           9.0602   -1.1995    0.0000 O.3     1  UNL1       -0.5032
      7 C           4.6641   -0.6754    0.0000 C.ar    1  UNL1        0.0368
      8 C           4.6641    0.3246    0.0000 C.ar    1  UNL1        0.0745
      9 C           6.3961    0.3246    0.0000 C.ar    1  UNL1        0.0784
     10 C           6.3961   -0.6754    0.0000 C.ar    1  UNL1        0.0403
     11 C           5.5301    0.8246    0.0000 C.2     1  UNL1        0.2016
     12 C           5.5301   -1.1754    0.0000 C.2     1  UNL1        0.1949
     13 C           3.7702   -1.2100    0.0000 C.ar    1  UNL1       -0.0471
     14 C           3.7702    0.8593    0.0000 C.ar    1  UNL1        0.1286
     15 C           7.2901    0.8593    0.0000 C.ar    1  UNL1        0.1737
     16 C           2.8641   -0.6962    0.0000 C.ar    1  UNL1       -0.0463
     17 C           7.2901   -1.2100    0.0000 C.ar    1  UNL1       -0.0048
     18 C           2.8641    0.3454    0.0000 C.ar    1  UNL1       -0.0165
     19 C           8.1962    0.3454    0.0000 C.ar    1  UNL1        0.2013
     20 C           8.1962   -0.6962    0.0000 C.ar    1  UNL1        0.1627
     21 C           2.0000   -1.1995    0.0000 C.3     1  UNL1       -0.0396
     22 H           3.7773   -1.8300    0.0000 H       1  UNL1        0.0627
     23 H           7.2829   -1.8300    0.0000 H       1  UNL1        0.0662
     24 H           2.3284    0.6575    0.0000 H       1  UNL1        0.0657
     25 H           1.6879   -0.6638    0.0000 H       1  UNL1        0.0278
     26 H           1.4643   -1.5116    0.0000 H       1  UNL1        0.0278
     27 H           2.3121   -1.7353    0.0000 H       1  UNL1        0.0278
     28 H           3.2484    2.1754    0.0000 H       1  UNL1        0.2922
     29 H           7.8118    2.1754    0.0000 H       1  UNL1        0.2923
     30 H           9.5984    0.5408    0.0000 H       1  UNL1        0.2924
     31 H           9.0579   -1.8195    0.0000 H       1  UNL1        0.2923
@<TRIPOS>BOND
     1     1    11    2
     2     2    12    2
     3     3    14    1
     4     3    28    1
     5     4    15    1
     6     4    29    1
     7     5    19    1
     8     5    30    1
     9     6    20    1
    10     6    31    1
    11     7     8   ar
    12     7    12    1
    13     7    13   ar
    14     8    11    1
    15     8    14   ar
    16     9    10   ar
    17     9    11    1
    18     9    15   ar
    19    10    12    1
    20    10    17   ar
    21    13    16   ar
    22    13    22    1
    23    14    18   ar
    24    15    19   ar
    25    16    18   ar
    26    16    21    1
    27    17    20   ar
    28    17    23    1
    29    18    24    1
    30    19    20   ar
    31    21    25    1
    32    21    26    1
    33    21    27    1
