@<TRIPOS>MOLECULE
IMPHY004691
 17 17 0 0 0
SMALL
GASTEIGER

@<TRIPOS>ATOM
      1 N           4.5981   -1.0000    0.0000 N.ar    1  UNL1       -0.2495
      2 N           4.5981    1.0000    0.0000 N.ar    1  UNL1       -0.2594
      3 C           5.4641   -0.5000    0.0000 C.ar    1  UNL1        0.0569
      4 C           3.7320   -0.5000    0.0000 C.ar    1  UNL1        0.0816
      5 C           6.3301   -1.0000    0.0000 C.3     1  UNL1       -0.0209
      6 C           5.4641    0.5000    0.0000 C.ar    1  UNL1        0.0486
      7 C           3.7320    0.5000    0.0000 C.ar    1  UNL1        0.0529
      8 C           2.8660   -1.0000    0.0000 C.2     1  UNL1       -0.0419
      9 C           2.0000   -0.5000    0.0000 C.2     1  UNL1       -0.0966
     10 H           6.0201   -1.5369    0.0000 H       1  UNL1        0.0293
     11 H           6.8671   -1.3100    0.0000 H       1  UNL1        0.0293
     12 H           6.6401   -0.4631    0.0000 H       1  UNL1        0.0293
     13 H           6.0010    0.8100    0.0000 H       1  UNL1        0.0848
     14 H           3.1951    0.8100    0.0000 H       1  UNL1        0.0851
     15 H           2.8660   -1.6200    0.0000 H       1  UNL1        0.0633
     16 H           2.0000    0.1200    0.0000 H       1  UNL1        0.0535
     17 H           1.4631   -0.8100    0.0000 H       1  UNL1        0.0535
@<TRIPOS>BOND
     1     1     3   ar
     2     1     4   ar
     3     2     6   ar
     4     2     7   ar
     5     3     5    1
     6     3     6   ar
     7     4     7   ar
     8     4     8    1
     9     5    10    1
    10     5    11    1
    11     5    12    1
    12     6    13    1
    13     7    14    1
    14     8     9    2
    15     8    15    1
    16     9    16    1
    17     9    17    1
