@<TRIPOS>MOLECULE
IMPHY002304
 79 84 0 0 0
SMALL
GASTEIGER

@<TRIPOS>ATOM
      1 O           6.2550    3.4669    0.0000 O.3     1  UNL1       -0.3717
      2 O           2.0000   -0.2453    0.0000 O.2     1  UNL1       -0.2923
      3 O           3.7482   -4.5996    0.0000 O.3     1  UNL1       -0.3912
      4 O           6.7888    4.6538    0.0000 O.3     1  UNL1       -0.4802
      5 O           7.2693    2.9897    0.0000 O.2     1  UNL1       -0.2503
      6 C           4.6681    0.2583    0.0000 C.3     1  UNL1       -0.0126
      7 C           4.6520    1.2998    0.0000 C.3     1  UNL1       -0.0020
      8 C           4.6520    3.2998    0.0000 C.3     1  UNL1        0.0031
      9 C           3.7700   -0.2695    0.0000 C.3     1  UNL1        0.0333
     10 C           3.7617   -1.3544    0.0000 C.3     1  UNL1       -0.0182
     11 C           3.7860    2.7998    0.0000 C.3     1  UNL1       -0.0101
     12 C           5.5180    2.7998    0.0000 C.3     1  UNL1        0.0659
     13 C           4.7013   -1.8969    0.0000 C.3     1  UNL1       -0.0274
     14 C           3.7860    1.7998    0.0000 C.2     1  UNL1       -0.0560
     15 C           5.5180    1.7998    0.0000 C.3     1  UNL1       -0.0164
     16 C           5.6200   -0.2623    0.0000 C.3     1  UNL1       -0.0459
     17 C           4.8612    4.2716    0.0000 C.3     1  UNL1       -0.0172
     18 C           5.8499    4.3747    0.0000 C.3     1  UNL1        0.0751
     19 C           5.6367   -1.3472    0.0000 C.3     1  UNL1       -0.0486
     20 C           4.7898    2.7967    0.0000 C.3     1  UNL1       -0.0279
     21 C           5.5879    3.4056    0.0000 C.3     1  UNL1        0.0913
     22 C           4.7187   -3.0269    0.0000 C.3     1  UNL1       -0.0056
     23 C           2.7743   -1.9043    0.0000 C.3     1  UNL1       -0.0443
     24 C           2.8680    0.2514    0.0000 C.2     1  UNL1        0.1602
     25 C           5.6515    0.4395    0.0000 C.3     1  UNL1       -0.0581
     26 C           5.6368    1.1262    0.0000 C.3     1  UNL1       -0.0552
     27 C           2.8760    1.2930    0.0000 C.2     1  UNL1       -0.0188
     28 C           3.7860    3.7998    0.0000 C.3     1  UNL1       -0.0566
     29 C           3.7444   -3.5996    0.0000 C.3     1  UNL1        0.0606
     30 C           2.8956   -0.8544    0.0000 C.3     1  UNL1       -0.0586
     31 C           2.7656   -3.0345    0.0000 C.3     1  UNL1       -0.0258
     32 C           5.2287   -3.8871    0.0000 C.3     1  UNL1       -0.0572
     33 C           5.7186   -3.0154    0.0000 C.3     1  UNL1       -0.0572
     34 C           6.4180    2.8480    0.0000 C.3     1  UNL1       -0.0470
     35 C           6.5486    3.6831    0.0000 C.2     1  UNL1        0.3132
     36 H           3.0323   -0.6916    0.0000 H       1  UNL1        0.0392
     37 H           3.0499    3.2248    0.0000 H       1  UNL1        0.0352
     38 H           6.0644    2.1487    0.0000 H       1  UNL1        0.0602
     39 H           5.4423   -2.3134    0.0000 H       1  UNL1        0.0312
     40 H           5.7301    1.2172    0.0000 H       1  UNL1        0.0299
     41 H           6.1286    1.9075    0.0000 H       1  UNL1        0.0299
     42 H           6.2324   -0.3590    0.0000 H       1  UNL1        0.0271
     43 H           5.8200    0.3245    0.0000 H       1  UNL1        0.0271
     44 H           4.8621    4.8916    0.0000 H       1  UNL1        0.0297
     45 H           4.2447    4.3377    0.0000 H       1  UNL1        0.0297
     46 H           6.2749    5.1108    0.0000 H       1  UNL1        0.0607
     47 H           5.8548   -1.9276    0.0000 H       1  UNL1        0.0268
     48 H           6.2459   -1.2317    0.0000 H       1  UNL1        0.0268
     49 H           4.6016    2.2059    0.0000 H       1  UNL1        0.0282
     50 H           5.2967    2.4396    0.0000 H       1  UNL1        0.0282
     51 H           2.5698   -1.3191    0.0000 H       1  UNL1        0.0272
     52 H           2.1627   -2.0057    0.0000 H       1  UNL1        0.0272
     53 H           5.7639   -0.1702    0.0000 H       1  UNL1        0.0236
     54 H           6.2612    0.5519    0.0000 H       1  UNL1        0.0236
     55 H           5.5391    1.0493    0.0000 H       1  UNL1        0.0236
     56 H           5.5291    0.5156    0.0000 H       1  UNL1        0.0238
     57 H           6.2474    1.0185    0.0000 H       1  UNL1        0.0238
     58 H           5.7445    1.7367    0.0000 H       1  UNL1        0.0238
     59 H           2.3427    1.6092    0.0000 H       1  UNL1        0.0652
     60 H           4.0960    4.3367    0.0000 H       1  UNL1        0.0236
     61 H           3.2490    4.1098    0.0000 H       1  UNL1        0.0236
     62 H           3.4760    3.2629    0.0000 H       1  UNL1        0.0236
     63 H           3.2080   -3.9106    0.0000 H       1  UNL1        0.0599
     64 H           3.2056   -0.3175    0.0000 H       1  UNL1        0.0235
     65 H           2.3587   -0.5444    0.0000 H       1  UNL1        0.0235
     66 H           2.5856   -1.3914    0.0000 H       1  UNL1        0.0235
     67 H           2.1556   -2.9237    0.0000 H       1  UNL1        0.0290
     68 H           2.5520   -3.6165    0.0000 H       1  UNL1        0.0290
     69 H           4.6954   -4.2033    0.0000 H       1  UNL1        0.0236
     70 H           5.7258   -3.6353    0.0000 H       1  UNL1        0.0236
     71 H           6.3386   -3.0082    0.0000 H       1  UNL1        0.0236
     72 H           5.5449   -4.4204    0.0000 H       1  UNL1        0.0236
     73 H           5.7115   -2.3954    0.0000 H       1  UNL1        0.0236
     74 H           5.7620   -3.5709    0.0000 H       1  UNL1        0.0236
     75 H           6.0722    2.3333    0.0000 H       1  UNL1        0.0241
     76 H           6.9326    2.5022    0.0000 H       1  UNL1        0.0241
     77 H           6.7637    3.3626    0.0000 H       1  UNL1        0.0241
     78 H           3.2125   -4.9116    0.0000 H       1  UNL1        0.2098
     79 H           7.3844    4.8258    0.0000 H       1  UNL1        0.2951
@<TRIPOS>BOND
     1     1    12    1
     2     1    18    1
     3     2    24    2
     4    29     3    1
     5     3    78    1
     6     4    35    1
     7     4    79    1
     8     5    35    2
     9     6     7    1
    10     6     9    1
    11     6    16    1
    12     6    25    1
    13     7    14    1
    14     7    15    1
    15     7    26    1
    16     8    11    1
    17     8    12    1
    18     8    17    1
    19     8    28    1
    20     9    10    1
    21     9    24    1
    22     9    36    1
    23    10    13    1
    24    10    23    1
    25    10    30    1
    26    11    14    1
    27    11    20    1
    28    11    37    1
    29    12    15    1
    30    12    38    1
    31    13    19    1
    32    13    22    1
    33    13    39    1
    34    14    27    2
    35    15    40    1
    36    15    41    1
    37    16    19    1
    38    16    42    1
    39    16    43    1
    40    17    18    1
    41    17    44    1
    42    17    45    1
    43    18    21    1
    44    18    46    1
    45    19    47    1
    46    19    48    1
    47    20    21    1
    48    20    49    1
    49    20    50    1
    50    21    34    1
    51    21    35    1
    52    22    29    1
    53    22    32    1
    54    22    33    1
    55    23    31    1
    56    23    51    1
    57    23    52    1
    58    24    27    1
    59    25    53    1
    60    25    54    1
    61    25    55    1
    62    26    56    1
    63    26    57    1
    64    26    58    1
    65    27    59    1
    66    28    60    1
    67    28    61    1
    68    28    62    1
    69    29    31    1
    70    29    63    1
    71    30    64    1
    72    30    65    1
    73    30    66    1
    74    31    67    1
    75    31    68    1
    76    32    69    1
    77    32    72    1
    78    32    74    1
    79    33    70    1
    80    33    71    1
    81    33    73    1
    82    34    75    1
    83    34    76    1
    84    34    77    1
