@<TRIPOS>MOLECULE
IMPHY006622
 52 55 0 0 0
SMALL
GASTEIGER

@<TRIPOS>ATOM
      1 O           3.1377   -1.0326    0.0000 O.3     1  UNL1       -0.5029
      2 O           3.3730   -2.7431    0.0000 O.3     1  UNL1       -0.4914
      3 O           2.8991    0.0127    0.0000 O.3     1  UNL1       -0.4907
      4 O           2.3689    1.6559    0.0000 O.3     1  UNL1       -0.4885
      5 O           3.6460    3.2573    0.0000 O.3     1  UNL1       -0.5032
      6 N           7.6714   -1.0336    0.0000 N.3     1  UNL1       -0.2981
      7 C           6.8031   -0.5703    0.0000 C.3     1  UNL1        0.0366
      8 C           5.9021   -1.0041    0.0000 C.ar    1  UNL1       -0.0155
      9 C           7.0256    0.4047    0.0000 C.3     1  UNL1       -0.0292
     10 C           5.9959   -2.0415    0.0000 C.ar    1  UNL1       -0.0372
     11 C           7.6967   -2.0175    0.0000 C.3     1  UNL1        0.0032
     12 C           6.8533   -2.5248    0.0000 C.3     1  UNL1       -0.0144
     13 C           5.0011   -0.5703    0.0000 C.ar    1  UNL1        0.0360
     14 C           6.4021    1.1865    0.0000 C.3     1  UNL1       -0.0251
     15 C           4.7786    0.4047    0.0000 C.ar    1  UNL1        0.0348
     16 C           5.4021    1.1865    0.0000 C.ar    1  UNL1       -0.0323
     17 C           5.1399   -2.6349    0.0000 C.ar    1  UNL1       -0.0127
     18 C           8.5222   -0.5082    0.0000 C.3     1  UNL1       -0.0122
     19 C           4.1316   -1.1437    0.0000 C.ar    1  UNL1        0.1668
     20 C           4.2014   -2.1830    0.0000 C.ar    1  UNL1        0.1622
     21 C           3.7463    0.5440    0.0000 C.ar    1  UNL1        0.1732
     22 C           5.0365    2.1619    0.0000 C.ar    1  UNL1       -0.0125
     23 C           3.3583    1.5107    0.0000 C.ar    1  UNL1        0.2039
     24 C           4.0078    2.3251    0.0000 C.ar    1  UNL1        0.1625
     25 C           3.4439   -3.7406    0.0000 C.3     1  UNL1        0.0790
     26 C           2.0154    0.4809    0.0000 C.3     1  UNL1        0.0790
     27 C           2.0000    2.5854    0.0000 C.3     1  UNL1        0.0791
     28 H           7.5764   -0.2174    0.0000 H       1  UNL1        0.0512
     29 H           7.5842    0.1357    0.0000 H       1  UNL1        0.0287
     30 H           7.4122    0.8894    0.0000 H       1  UNL1        0.0287
     31 H           7.9206   -2.5956    0.0000 H       1  UNL1        0.0430
     32 H           8.3046   -1.8957    0.0000 H       1  UNL1        0.0430
     33 H           6.4609   -3.0049    0.0000 H       1  UNL1        0.0326
     34 H           7.2591   -2.9936    0.0000 H       1  UNL1        0.0326
     35 H           6.9607    1.4555    0.0000 H       1  UNL1        0.0314
     36 H           6.2641    1.7910    0.0000 H       1  UNL1        0.0314
     37 H           5.1886   -3.2530    0.0000 H       1  UNL1        0.0658
     38 H           8.8480   -1.0358    0.0000 H       1  UNL1        0.0391
     39 H           9.0498   -0.1825    0.0000 H       1  UNL1        0.0391
     40 H           8.1965    0.0193    0.0000 H       1  UNL1        0.0391
     41 H           5.4287    2.6421    0.0000 H       1  UNL1        0.0658
     42 H           2.7700   -1.5318    0.0000 H       1  UNL1        0.2923
     43 H           4.0344    3.7406    0.0000 H       1  UNL1        0.2923
     44 H           2.8254   -3.7845    0.0000 H       1  UNL1        0.0660
     45 H           3.4878   -4.3590    0.0000 H       1  UNL1        0.0660
     46 H           4.0623   -3.6966    0.0000 H       1  UNL1        0.0660
     47 H           2.3057    1.0288    0.0000 H       1  UNL1        0.0660
     48 H           1.4676    0.7711    0.0000 H       1  UNL1        0.0660
     49 H           1.7252   -0.0670    0.0000 H       1  UNL1        0.0660
     50 H           2.5763    2.8141    0.0000 H       1  UNL1        0.0660
     51 H           1.7713    3.1616    0.0000 H       1  UNL1        0.0660
     52 H           1.4237    2.3566    0.0000 H       1  UNL1        0.0660
@<TRIPOS>BOND
     1     1    19    1
     2     1    42    1
     3     2    20    1
     4     2    25    1
     5     3    21    1
     6     3    26    1
     7     4    23    1
     8     4    27    1
     9     5    24    1
    10     5    43    1
    11     6     7    1
    12     6    11    1
    13     6    18    1
    14     7     8    1
    15     7     9    1
    16     7    28    1
    17     8    10   ar
    18     8    13   ar
    19     9    14    1
    20     9    29    1
    21     9    30    1
    22    10    12    1
    23    10    17   ar
    24    11    12    1
    25    11    31    1
    26    11    32    1
    27    12    33    1
    28    12    34    1
    29    13    15    1
    30    13    19   ar
    31    14    16    1
    32    14    35    1
    33    14    36    1
    34    15    16   ar
    35    15    21   ar
    36    16    22   ar
    37    17    20   ar
    38    17    37    1
    39    18    38    1
    40    18    39    1
    41    18    40    1
    42    19    20   ar
    43    21    23   ar
    44    22    24   ar
    45    22    41    1
    46    23    24   ar
    47    25    44    1
    48    25    45    1
    49    25    46    1
    50    26    47    1
    51    26    48    1
    52    26    49    1
    53    27    50    1
    54    27    51    1
    55    27    52    1
