@<TRIPOS>MOLECULE
IMPHY002473
 83 87 0 0 0
SMALL
GASTEIGER

@<TRIPOS>ATOM
      1 O           2.5357   -1.8958    0.0000 O.3     1  UNL1       -0.3881
      2 O           2.5519    0.1958    0.0000 O.3     1  UNL1       -0.3892
      3 O          10.2188    4.2046    0.0000 O.3     1  UNL1       -0.3886
      4 O           4.3500   -3.6736    0.0000 O.3     1  UNL1       -0.4802
      5 O          11.4608    1.1907    0.0000 O.3     1  UNL1       -0.4802
      6 O           2.8467   -2.8134    0.0000 O.2     1  UNL1       -0.2503
      7 O          10.6064   -0.3159    0.0000 O.2     1  UNL1       -0.2504
      8 C           7.0628   -0.3434    0.0000 C.3     1  UNL1       -0.0194
      9 C           6.1968    0.1566    0.0000 C.3     1  UNL1       -0.0256
     10 C           5.2868   -0.3503    0.0000 C.3     1  UNL1       -0.0221
     11 C           7.9288    0.1566    0.0000 C.3     1  UNL1       -0.0051
     12 C           5.2787   -1.3919    0.0000 C.3     1  UNL1       -0.0173
     13 C           7.0789   -1.3849    0.0000 C.3     1  UNL1       -0.0463
     14 C           7.9288    1.1566    0.0000 C.2     1  UNL1       -0.0625
     15 C           8.8228    1.6912    0.0000 C.3     1  UNL1        0.0015
     16 C           6.1808   -1.9127    0.0000 C.3     1  UNL1       -0.0481
     17 C           6.1968    1.1566    0.0000 C.3     1  UNL1       -0.0306
     18 C           4.3433   -1.9416    0.0000 C.3     1  UNL1        0.0962
     19 C           8.8228   -0.3781    0.0000 C.3     1  UNL1       -0.0424
     20 C           9.7288    1.1774    0.0000 C.3     1  UNL1        0.0745
     21 C           4.3599    0.2138    0.0000 C.3     1  UNL1       -0.0184
     22 C           9.7288    0.1358    0.0000 C.3     1  UNL1       -0.0359
     23 C           7.7056   -1.1095    0.0000 C.3     1  UNL1       -0.0585
     24 C           7.0628    1.6566    0.0000 C.2     1  UNL1       -0.0836
     25 C           8.7977    2.7759    0.0000 C.3     1  UNL1       -0.0077
     26 C           5.2945    0.6497    0.0000 C.3     1  UNL1       -0.0589
     27 C           3.4037   -1.3991    0.0000 C.3     1  UNL1        0.0967
     28 C           3.4120   -0.3141    0.0000 C.3     1  UNL1        0.0826
     29 C           8.2709   -0.7831    0.0000 C.3     1  UNL1       -0.0553
     30 C          10.6726    1.7126    0.0000 C.3     1  UNL1       -0.0341
     31 C           9.7288    3.3328    0.0000 C.3     1  UNL1        0.0665
     32 C          10.6726    2.7976    0.0000 C.3     1  UNL1       -0.0230
     33 C           4.8466   -2.8057    0.0000 C.3     1  UNL1       -0.0466
     34 C           3.8467   -2.8096    0.0000 C.2     1  UNL1        0.3135
     35 C          10.5987    0.6841    0.0000 C.2     1  UNL1        0.3115
     36 C           7.9222    3.2592    0.0000 C.3     1  UNL1       -0.0592
     37 C           9.2188    4.1930    0.0000 C.3     1  UNL1       -0.0358
     38 H           6.9329    0.5816    0.0000 H       1  UNL1        0.0315
     39 H           5.2820   -2.2419    0.0000 H       1  UNL1        0.0317
     40 H           7.2969   -1.9653    0.0000 H       1  UNL1        0.0271
     41 H           7.6880   -1.2694    0.0000 H       1  UNL1        0.0271
     42 H           8.0786    2.1020    0.0000 H       1  UNL1        0.0360
     43 H           5.7835   -2.3887    0.0000 H       1  UNL1        0.0269
     44 H           6.5818   -2.3856    0.0000 H       1  UNL1        0.0269
     45 H           5.9847    1.7392    0.0000 H       1  UNL1        0.0310
     46 H           5.5862    1.0489    0.0000 H       1  UNL1        0.0310
     47 H           8.4182   -0.8479    0.0000 H       1  UNL1        0.0274
     48 H           9.2164   -0.8571    0.0000 H       1  UNL1        0.0274
     49 H           4.7681    0.6805    0.0000 H       1  UNL1        0.0296
     50 H           3.9700    0.6958    0.0000 H       1  UNL1        0.0296
     51 H           9.9379   -0.4479    0.0000 H       1  UNL1        0.0276
     52 H          10.3397    0.2418    0.0000 H       1  UNL1        0.0276
     53 H           7.2306   -1.5080    0.0000 H       1  UNL1        0.0235
     54 H           8.1041   -1.5844    0.0000 H       1  UNL1        0.0235
     55 H           8.1805   -0.7110    0.0000 H       1  UNL1        0.0235
     56 H           7.0628    2.2766    0.0000 H       1  UNL1        0.0572
     57 H           8.2674    2.4546    0.0000 H       1  UNL1        0.0332
     58 H           5.9145    0.6449    0.0000 H       1  UNL1        0.0235
     59 H           5.2993    1.2697    0.0000 H       1  UNL1        0.0235
     60 H           4.6745    0.6545    0.0000 H       1  UNL1        0.0235
     61 H           3.4025   -2.0191    0.0000 H       1  UNL1        0.0630
     62 H           2.8722   -0.6190    0.0000 H       1  UNL1        0.0619
     63 H           7.6884   -0.9952    0.0000 H       1  UNL1        0.0238
     64 H           8.4830   -1.3657    0.0000 H       1  UNL1        0.0238
     65 H           8.8535   -0.5710    0.0000 H       1  UNL1        0.0238
     66 H          10.8817    1.1289    0.0000 H       1  UNL1        0.0277
     67 H          11.2835    1.8187    0.0000 H       1  UNL1        0.0277
     68 H          11.2835    2.6915    0.0000 H       1  UNL1        0.0293
     69 H          10.8817    3.3813    0.0000 H       1  UNL1        0.0293
     70 H           4.3109   -3.1178    0.0000 H       1  UNL1        0.0241
     71 H           5.1587   -3.3414    0.0000 H       1  UNL1        0.0241
     72 H           5.3824   -2.4936    0.0000 H       1  UNL1        0.0241
     73 H           8.2218    3.8020    0.0000 H       1  UNL1        0.0233
     74 H           7.3794    3.5587    0.0000 H       1  UNL1        0.0233
     75 H           7.6226    2.7163    0.0000 H       1  UNL1        0.0233
     76 H           9.7522    4.5092    0.0000 H       1  UNL1        0.0257
     77 H           8.9027    4.7264    0.0000 H       1  UNL1        0.0257
     78 H           8.6855    3.8768    0.0000 H       1  UNL1        0.0257
     79 H           2.0000   -1.5837    0.0000 H       1  UNL1        0.2099
     80 H           2.5590    0.8158    0.0000 H       1  UNL1        0.2099
     81 H          10.8387    4.2118    0.0000 H       1  UNL1        0.2102
     82 H           4.0421   -4.2118    0.0000 H       1  UNL1        0.2951
     83 H          12.0001    0.8849    0.0000 H       1  UNL1        0.2951
@<TRIPOS>BOND
     1    27     1    1
     2     1    79    1
     3    28     2    1
     4     2    80    1
     5    31     3    1
     6     3    81    1
     7     4    34    1
     8     4    82    1
     9     5    35    1
    10     5    83    1
    11     6    34    2
    12     7    35    2
    13     8     9    1
    14     8    11    1
    15     8    13    1
    16     8    23    1
    17     9    10    1
    18     9    17    1
    19     9    38    1
    20    10    12    1
    21    10    21    1
    22    10    26    1
    23    11    14    1
    24    11    19    1
    25    11    29    1
    26    12    16    1
    27    12    18    1
    28    12    39    1
    29    13    16    1
    30    13    40    1
    31    13    41    1
    32    14    15    1
    33    14    24    2
    34    15    20    1
    35    15    25    1
    36    15    42    1
    37    16    43    1
    38    16    44    1
    39    17    24    1
    40    17    45    1
    41    17    46    1
    42    18    27    1
    43    18    33    1
    44    18    34    1
    45    19    22    1
    46    19    47    1
    47    19    48    1
    48    20    22    1
    49    20    30    1
    50    20    35    1
    51    21    28    1
    52    21    49    1
    53    21    50    1
    54    22    51    1
    55    22    52    1
    56    23    53    1
    57    23    54    1
    58    23    55    1
    59    24    56    1
    60    25    31    1
    61    25    36    1
    62    25    57    1
    63    26    58    1
    64    26    59    1
    65    26    60    1
    66    27    28    1
    67    27    61    1
    68    28    62    1
    69    29    63    1
    70    29    64    1
    71    29    65    1
    72    30    32    1
    73    30    66    1
    74    30    67    1
    75    31    32    1
    76    31    37    1
    77    32    68    1
    78    32    69    1
    79    33    70    1
    80    33    71    1
    81    33    72    1
    82    36    73    1
    83    36    74    1
    84    36    75    1
    85    37    76    1
    86    37    77    1
    87    37    78    1
