@<TRIPOS>MOLECULE
IMPHY005194
 90 95 0 0 0
SMALL
GASTEIGER

@<TRIPOS>ATOM
      1 O           6.8671   -4.1339    0.0000 O.3     1  UNL1       -0.3451
      2 O           5.1350   -4.1339    0.0000 O.3     1  UNL1       -0.3405
      3 O           5.5182    6.0322    0.0000 O.3     1  UNL1       -0.3902
      4 O           6.8671   -6.1339    0.0000 O.3     1  UNL1       -0.3841
      5 O           5.1350   -7.1339    0.0000 O.3     1  UNL1       -0.3864
      6 O           3.4030   -6.1339    0.0000 O.3     1  UNL1       -0.3865
      7 O           2.5369   -4.6339    0.0000 O.3     1  UNL1       -0.3924
      8 N           7.9150    4.9117    0.0000 N.3     1  UNL1       -0.3101
      9 C           6.8910   -1.0647    0.0000 C.3     1  UNL1       -0.0072
     10 C           6.8948   -0.0647    0.0000 C.3     1  UNL1       -0.0208
     11 C           7.7628    0.4319    0.0000 C.3     1  UNL1       -0.0083
     12 C           7.7551   -1.5681    0.0000 C.2     1  UNL1       -0.0648
     13 C           6.1604    0.6052    0.0000 C.3     1  UNL1       -0.0230
     14 C           5.9790   -1.5681    0.0000 C.3     1  UNL1       -0.0413
     15 C           8.6269   -0.0714    0.0000 C.3     1  UNL1       -0.0274
     16 C           7.5573    1.4045    0.0000 C.ar    1  UNL1       -0.0402
     17 C           6.5690    1.5114    0.0000 C.ar    1  UNL1       -0.0404
     18 C           7.7671   -2.6096    0.0000 C.3     1  UNL1       -0.0047
     19 C           5.9670   -2.6096    0.0000 C.3     1  UNL1       -0.0254
     20 C           6.0269   -0.5614    0.0000 C.3     1  UNL1       -0.0556
     21 C           6.8671   -3.1339    0.0000 C.3     1  UNL1        0.0655
     22 C           8.6230   -1.0714    0.0000 C.2     1  UNL1       -0.0836
     23 C           6.1361    2.4520    0.0000 C.ar    1  UNL1       -0.0435
     24 C           8.1813    2.2309    0.0000 C.ar    1  UNL1       -0.0577
     25 C           6.7408    3.2926    0.0000 C.ar    1  UNL1       -0.0398
     26 C           6.3333    4.2058    0.0000 C.3     1  UNL1       -0.0006
     27 C           7.7703    3.1813    0.0000 C.ar    1  UNL1       -0.0577
     28 C           6.9204    5.0153    0.0000 C.3     1  UNL1        0.0402
     29 C           5.1408    2.5480    0.0000 C.3     1  UNL1       -0.0392
     30 C           6.0010   -4.6339    0.0000 C.3     1  UNL1        0.1882
     31 C           6.5128    5.9285    0.0000 C.3     1  UNL1        0.0714
     32 C           5.3387    4.3095    0.0000 C.3     1  UNL1       -0.0569
     33 C           6.0010   -5.6339    0.0000 C.3     1  UNL1        0.1341
     34 C           7.0999    6.7380    0.0000 C.3     1  UNL1       -0.0216
     35 C           8.0945    6.6344    0.0000 C.3     1  UNL1       -0.0289
     36 C           8.5021    5.7212    0.0000 C.3     1  UNL1       -0.0011
     37 C           5.1350   -6.1339    0.0000 C.3     1  UNL1        0.1141
     38 C           4.2690   -4.6339    0.0000 C.3     1  UNL1        0.1130
     39 C           4.2690   -5.6339    0.0000 C.3     1  UNL1        0.1119
     40 C           8.6816    7.4439    0.0000 C.3     1  UNL1       -0.0612
     41 C           3.4030   -4.1339    0.0000 C.3     1  UNL1        0.0730
     42 H           7.6293   -0.4926    0.0000 H       1  UNL1        0.0318
     43 H           8.4517    0.9298    0.0000 H       1  UNL1        0.0355
     44 H           5.6251    0.9180    0.0000 H       1  UNL1        0.0316
     45 H           5.7930    0.1057    0.0000 H       1  UNL1        0.0316
     46 H           5.7768   -0.9820    0.0000 H       1  UNL1        0.0274
     47 H           5.3670   -1.6671    0.0000 H       1  UNL1        0.0274
     48 H           9.2370   -0.1814    0.0000 H       1  UNL1        0.0313
     49 H           8.8412    0.5104    0.0000 H       1  UNL1        0.0313
     50 H           7.9829   -3.1909    0.0000 H       1  UNL1        0.0335
     51 H           8.3767   -2.4965    0.0000 H       1  UNL1        0.0335
     52 H           5.3574   -2.4965    0.0000 H       1  UNL1        0.0290
     53 H           5.7512   -3.1909    0.0000 H       1  UNL1        0.0290
     54 H           6.3390   -0.0257    0.0000 H       1  UNL1        0.0238
     55 H           5.4912   -0.2493    0.0000 H       1  UNL1        0.0238
     56 H           5.7148   -1.0971    0.0000 H       1  UNL1        0.0238
     57 H           7.4046   -3.4429    0.0000 H       1  UNL1        0.0600
     58 H           9.1588   -1.3835    0.0000 H       1  UNL1        0.0572
     59 H           8.7969    2.1571    0.0000 H       1  UNL1        0.0621
     60 H           5.9693    3.7039    0.0000 H       1  UNL1        0.0362
     61 H           8.1381    3.6804    0.0000 H       1  UNL1        0.0621
     62 H           7.2668    4.2391    0.0000 H       1  UNL1        0.0492
     63 H           5.2003    3.1652    0.0000 H       1  UNL1        0.0278
     64 H           4.5236    2.6076    0.0000 H       1  UNL1        0.0278
     65 H           5.0812    1.9309    0.0000 H       1  UNL1        0.0278
     66 H           6.0010   -4.0139    0.0000 H       1  UNL1        0.0937
     67 H           6.2602    6.4947    0.0000 H       1  UNL1        0.0609
     68 H           5.4029    4.9261    0.0000 H       1  UNL1        0.0236
     69 H           4.7220    4.3738    0.0000 H       1  UNL1        0.0236
     70 H           5.2744    3.6928    0.0000 H       1  UNL1        0.0236
     71 H           6.0010   -6.2539    0.0000 H       1  UNL1        0.0671
     72 H           8.1676    4.3455    0.0000 H       1  UNL1        0.1223
     73 H           7.2703    7.3342    0.0000 H       1  UNL1        0.0294
     74 H           6.5424    7.0094    0.0000 H       1  UNL1        0.0294
     75 H           8.7112    6.5701    0.0000 H       1  UNL1        0.0311
     76 H           8.9331    5.2756    0.0000 H       1  UNL1        0.0427
     77 H           9.0158    6.0683    0.0000 H       1  UNL1        0.0427
     78 H           4.5981   -6.4439    0.0000 H       1  UNL1        0.0648
     79 H           4.2690   -4.0139    0.0000 H       1  UNL1        0.0647
     80 H           3.7320   -5.3239    0.0000 H       1  UNL1        0.0647
     81 H           9.1835    7.0799    0.0000 H       1  UNL1        0.0233
     82 H           9.0456    7.9458    0.0000 H       1  UNL1        0.0233
     83 H           8.1797    7.8079    0.0000 H       1  UNL1        0.0233
     84 H           5.2656    6.5984    0.0000 H       1  UNL1        0.2098
     85 H           3.8015   -3.6590    0.0000 H       1  UNL1        0.0584
     86 H           3.0044   -3.6590    0.0000 H       1  UNL1        0.0584
     87 H           6.8671   -6.7539    0.0000 H       1  UNL1        0.2101
     88 H           4.5981   -7.4439    0.0000 H       1  UNL1        0.2100
     89 H           3.4030   -6.7539    0.0000 H       1  UNL1        0.2100
     90 H           2.0000   -4.3239    0.0000 H       1  UNL1        0.2095
@<TRIPOS>BOND
     1    21     1    1
     2    30     1    1
     3     2    30    1
     4     2    38    1
     5    31     3    1
     6     3    84    1
     7    33     4    1
     8     4    87    1
     9    37     5    1
    10     5    88    1
    11    39     6    1
    12     6    89    1
    13     7    41    1
    14     7    90    1
    15     8    28    1
    16     8    36    1
    17     8    72    1
    18     9    10    1
    19     9    12    1
    20     9    14    1
    21     9    20    1
    22    10    11    1
    23    10    13    1
    24    10    42    1
    25    11    15    1
    26    11    16    1
    27    11    43    1
    28    12    18    1
    29    12    22    2
    30    13    17    1
    31    13    44    1
    32    13    45    1
    33    14    19    1
    34    14    46    1
    35    14    47    1
    36    15    22    1
    37    15    48    1
    38    15    49    1
    39    16    17   ar
    40    16    24   ar
    41    17    23   ar
    42    18    21    1
    43    18    50    1
    44    18    51    1
    45    19    21    1
    46    19    52    1
    47    19    53    1
    48    20    54    1
    49    20    55    1
    50    20    56    1
    51    21    57    1
    52    22    58    1
    53    23    25   ar
    54    23    29    1
    55    24    27   ar
    56    24    59    1
    57    25    26    1
    58    25    27   ar
    59    26    28    1
    60    26    32    1
    61    26    60    1
    62    27    61    1
    63    28    31    1
    64    28    62    1
    65    29    63    1
    66    29    64    1
    67    29    65    1
    68    30    33    1
    69    30    66    1
    70    31    34    1
    71    31    67    1
    72    32    68    1
    73    32    69    1
    74    32    70    1
    75    33    37    1
    76    33    71    1
    77    34    35    1
    78    34    73    1
    79    34    74    1
    80    35    36    1
    81    35    40    1
    82    35    75    1
    83    36    76    1
    84    36    77    1
    85    37    39    1
    86    37    78    1
    87    38    39    1
    88    38    41    1
    89    38    79    1
    90    39    80    1
    91    40    81    1
    92    40    82    1
    93    40    83    1
    94    41    85    1
    95    41    86    1
