@<TRIPOS>MOLECULE
IMPHY010586
 40 42 0 0 0
SMALL
GASTEIGER

@<TRIPOS>ATOM
      1 O           2.6183   -2.6019    0.0000 O.3     1  UNL1       -0.3915
      2 C           4.1664   -0.5396    0.0000 C.3     1  UNL1       -0.0175
      3 C           3.2654   -0.1057    0.0000 C.3     1  UNL1       -0.0113
      4 C           4.6664    1.6511    0.0000 C.3     1  UNL1       -0.0316
      5 C           4.0596    0.6372    0.0000 C.3     1  UNL1       -0.0429
      6 C           4.0304   -1.5243    0.0000 C.3     1  UNL1       -0.0116
      7 C           5.0674   -0.1057    0.0000 C.3     1  UNL1       -0.0462
      8 C           3.6664    1.6511    0.0000 C.3     1  UNL1       -0.0110
      9 C           5.2899    0.8692    0.0000 C.3     1  UNL1       -0.0489
     10 C           2.5803   -0.8260    0.0000 C.3     1  UNL1       -0.0195
     11 C           3.0429    0.8692    0.0000 C.2     1  UNL1       -0.0670
     12 C           3.0522   -1.7010    0.0000 C.3     1  UNL1        0.0589
     13 C           4.7520   -2.2166    0.0000 C.3     1  UNL1       -0.0595
     14 C           2.8402    2.2144    0.0000 C.3     1  UNL1       -0.0558
     15 C           3.7411    2.6483    0.0000 C.3     1  UNL1       -0.0558
     16 C           2.0680    1.0918    0.0000 C.2     1  UNL1       -0.0986
     17 H           2.4996    0.2631    0.0000 H       1  UNL1        0.0352
     18 H           4.8556    2.4798    0.0000 H       1  UNL1        0.0309
     19 H           3.6518    1.1042    0.0000 H       1  UNL1        0.0274
     20 H           3.4895    0.3934    0.0000 H       1  UNL1        0.0274
     21 H           4.6161   -1.3208    0.0000 H       1  UNL1        0.0328
     22 H           5.2053   -0.7102    0.0000 H       1  UNL1        0.0271
     23 H           5.6874   -0.1057    0.0000 H       1  UNL1        0.0271
     24 H           5.8485    0.6002    0.0000 H       1  UNL1        0.0268
     25 H           5.6765    1.3540    0.0000 H       1  UNL1        0.0268
     26 H           2.1785   -0.3538    0.0000 H       1  UNL1        0.0296
     27 H           2.0686   -1.1760    0.0000 H       1  UNL1        0.0296
     28 H           2.4323   -1.7152    0.0000 H       1  UNL1        0.0596
     29 H           4.3228   -2.6640    0.0000 H       1  UNL1        0.0233
     30 H           5.1994   -2.6459    0.0000 H       1  UNL1        0.0233
     31 H           5.1812   -1.7692    0.0000 H       1  UNL1        0.0233
     32 H           3.1894    2.7266    0.0000 H       1  UNL1        0.0238
     33 H           2.3279    2.5636    0.0000 H       1  UNL1        0.0238
     34 H           2.4909    1.7021    0.0000 H       1  UNL1        0.0238
     35 H           4.3594    2.6019    0.0000 H       1  UNL1        0.0238
     36 H           3.7875    3.2665    0.0000 H       1  UNL1        0.0238
     37 H           3.1229    2.6946    0.0000 H       1  UNL1        0.0238
     38 H           1.8852    1.6842    0.0000 H       1  UNL1        0.0535
     39 H           1.6463    0.6373    0.0000 H       1  UNL1        0.0535
     40 H           2.0000   -2.6483    0.0000 H       1  UNL1        0.2098
@<TRIPOS>BOND
     1    12     1    1
     2     1    40    1
     3     2     3    1
     4     2     5    1
     5     2     6    1
     6     2     7    1
     7     3    10    1
     8     3    11    1
     9     3    17    1
    10     4     5    1
    11     4     8    1
    12     4     9    1
    13     4    18    1
    14     5    19    1
    15     5    20    1
    16     6    12    1
    17     6    13    1
    18     6    21    1
    19     7     9    1
    20     7    22    1
    21     7    23    1
    22     8    11    1
    23     8    14    1
    24     8    15    1
    25     9    24    1
    26     9    25    1
    27    10    12    1
    28    10    26    1
    29    10    27    1
    30    11    16    2
    31    12    28    1
    32    13    29    1
    33    13    30    1
    34    13    31    1
    35    14    32    1
    36    14    33    1
    37    14    34    1
    38    15    35    1
    39    15    36    1
    40    15    37    1
    41    16    38    1
    42    16    39    1
