@<TRIPOS>MOLECULE
IMPHY011204
 36 39 0 0 0
SMALL
GASTEIGER

@<TRIPOS>ATOM
      1 O           7.8003    1.3865    0.0000 O.3     1  UNL1       -0.3839
      2 O           6.0682    2.3865    0.0000 O.3     1  UNL1       -0.4850
      3 O           5.4812   -3.1701    0.0000 O.3     1  UNL1       -0.5033
      4 O           4.3198    3.4211    0.0000 O.3     1  UNL1       -0.5009
      5 O           7.5123   -3.3818    0.0000 O.3     1  UNL1       -0.5033
      6 O           2.5381    2.4106    0.0000 O.3     1  UNL1       -0.5032
      7 C           6.9343    0.8865    0.0000 C.3     1  UNL1        0.1146
      8 C           6.0682    0.3865    0.0000 C.3     1  UNL1        0.0454
      9 C           7.6713    0.2194    0.0000 C.3     1  UNL1        0.0058
     10 C           6.2775   -0.5853    0.0000 C.ar    1  UNL1       -0.0300
     11 C           7.2662   -0.6884    0.0000 C.ar    1  UNL1       -0.0370
     12 C           6.9343    1.8865    0.0000 C.3     1  UNL1        0.1196
     13 C           5.2022    0.8865    0.0000 C.ar    1  UNL1        0.0084
     14 C           5.2022    1.8865    0.0000 C.ar    1  UNL1        0.1693
     15 C           5.6567   -1.4141    0.0000 C.ar    1  UNL1       -0.0124
     16 C           7.7027   -1.6273    0.0000 C.ar    1  UNL1       -0.0130
     17 C           4.3083    0.3518    0.0000 C.ar    1  UNL1       -0.0507
     18 C           6.0714   -2.3629    0.0000 C.ar    1  UNL1        0.1585
     19 C           4.3083    2.4212    0.0000 C.ar    1  UNL1        0.2011
     20 C           7.1013   -2.4702    0.0000 C.ar    1  UNL1        0.1585
     21 C           3.4022    0.8657    0.0000 C.ar    1  UNL1       -0.0160
     22 C           3.4022    1.9073    0.0000 C.ar    1  UNL1        0.1620
     23 H           5.3812   -0.1140    0.0000 H       1  UNL1        0.0428
     24 H           8.2078   -0.0914    0.0000 H       1  UNL1        0.0342
     25 H           8.0367    0.7203    0.0000 H       1  UNL1        0.0342
     26 H           7.5449    1.7788    0.0000 H       1  UNL1        0.0726
     27 H           7.1463    2.4691    0.0000 H       1  UNL1        0.0726
     28 H           5.0408   -1.3427    0.0000 H       1  UNL1        0.0658
     29 H           8.3372    1.0765    0.0000 H       1  UNL1        0.2104
     30 H           8.3200   -1.6845    0.0000 H       1  UNL1        0.0658
     31 H           4.3154   -0.2681    0.0000 H       1  UNL1        0.0623
     32 H           2.8665    0.5536    0.0000 H       1  UNL1        0.0655
     33 H           5.7317   -3.7373    0.0000 H       1  UNL1        0.2923
     34 H           3.7865    3.7373    0.0000 H       1  UNL1        0.2924
     35 H           8.1292   -3.4437    0.0000 H       1  UNL1        0.2923
     36 H           2.0000    2.1027    0.0000 H       1  UNL1        0.2923
@<TRIPOS>BOND
     1     7     1    1
     2     1    29    1
     3     2    12    1
     4     2    14    1
     5     3    18    1
     6     3    33    1
     7     4    19    1
     8     4    34    1
     9     5    20    1
    10     5    35    1
    11     6    22    1
    12     6    36    1
    13     7     8    1
    14     7     9    1
    15     7    12    1
    16     8    10    1
    17     8    13    1
    18     8    23    1
    19     9    11    1
    20     9    24    1
    21     9    25    1
    22    10    11   ar
    23    10    15   ar
    24    11    16   ar
    25    12    26    1
    26    12    27    1
    27    13    14   ar
    28    13    17   ar
    29    14    19   ar
    30    15    18   ar
    31    15    28    1
    32    16    20   ar
    33    16    30    1
    34    17    21   ar
    35    17    31    1
    36    18    20   ar
    37    19    22   ar
    38    21    22   ar
    39    21    32    1
