@<TRIPOS>MOLECULE
IMPHY001858
 16 15 0 0 0
SMALL
GASTEIGER

@<TRIPOS>ATOM
      1 O           2.8660   -1.2500    0.0000 O.2     1  UNL1       -0.2977
      2 O           6.3301   -0.2500    0.0000 O.3     1  UNL1       -0.4806
      3 O           5.4641    1.2500    0.0000 O.2     1  UNL1       -0.2510
      4 C           3.7320    0.2500    0.0000 C.3     1  UNL1        0.0156
      5 C           4.5981   -0.2500    0.0000 C.3     1  UNL1        0.0514
      6 C           2.8660   -0.2500    0.0000 C.2     1  UNL1        0.1308
      7 C           2.0000    0.2500    0.0000 C.3     1  UNL1       -0.0061
      8 C           5.4641    0.2500    0.0000 C.2     1  UNL1        0.3051
      9 H           4.1306    0.7249    0.0000 H       1  UNL1        0.0347
     10 H           3.3335    0.7249    0.0000 H       1  UNL1        0.0347
     11 H           4.1996   -0.7249    0.0000 H       1  UNL1        0.0382
     12 H           4.9966   -0.7249    0.0000 H       1  UNL1        0.0382
     13 H           2.3100    0.7869    0.0000 H       1  UNL1        0.0306
     14 H           1.4631    0.5600    0.0000 H       1  UNL1        0.0306
     15 H           1.6900   -0.2869    0.0000 H       1  UNL1        0.0306
     16 H           6.8671    0.0600    0.0000 H       1  UNL1        0.2951
@<TRIPOS>BOND
     1     1     6    2
     2     2     8    1
     3     2    16    1
     4     3     8    2
     5     4     5    1
     6     4     6    1
     7     4     9    1
     8     4    10    1
     9     5     8    1
    10     5    11    1
    11     5    12    1
    12     6     7    1
    13     7    13    1
    14     7    14    1
    15     7    15    1
