@<TRIPOS>MOLECULE
IMPHY000366
 70 75 0 0 0
SMALL
GASTEIGER

@<TRIPOS>ATOM
      1 O           8.6492    0.8838    0.0000 O.3     1  UNL1       -0.3640
      2 O           5.7172   -0.1363    0.0000 O.2     1  UNL1       -0.2920
      3 O           2.5355   -3.8908    0.0000 O.3     1  UNL1       -0.3915
      4 N          11.2252    1.2927    0.0000 N.3     1  UNL1       -0.3103
      5 C           7.0422   -2.3486    0.0000 C.3     1  UNL1       -0.0200
      6 C           7.7827   -1.6853    0.0000 C.3     1  UNL1       -0.0086
      7 C           6.1817   -1.8508    0.0000 C.3     1  UNL1        0.0345
      8 C           8.9582   -0.0673    0.0000 C.3     1  UNL1        0.0953
      9 C           5.2767   -2.3538    0.0000 C.3     1  UNL1       -0.0008
     10 C           7.3759   -0.7718    0.0000 C.2     1  UNL1        0.0004
     11 C           9.9582   -0.0673    0.0000 C.3     1  UNL1        0.0070
     12 C           8.7772   -1.7898    0.0000 C.3     1  UNL1       -0.0429
     13 C           9.3650   -0.9808    0.0000 C.3     1  UNL1       -0.0190
     14 C           7.9637    0.0372    0.0000 C.2     1  UNL1       -0.0342
     15 C          10.2673    0.8838    0.0000 C.3     1  UNL1        0.0394
     16 C           6.3876   -0.8783    0.0000 C.2     1  UNL1        0.1637
     17 C           9.4582    1.4716    0.0000 C.3     1  UNL1        0.0757
     18 C           7.0573   -3.3839    0.0000 C.3     1  UNL1       -0.0304
     19 C           5.2678   -3.3893    0.0000 C.2     1  UNL1       -0.0644
     20 C           4.3558   -1.7923    0.0000 C.3     1  UNL1       -0.0409
     21 C           6.1641   -3.9078    0.0000 C.2     1  UNL1       -0.0838
     22 C           9.5511    2.5090    0.0000 C.3     1  UNL1       -0.0213
     23 C           5.2852   -1.3539    0.0000 C.3     1  UNL1       -0.0552
     24 C           4.3374   -3.9349    0.0000 C.3     1  UNL1       -0.0051
     25 C           3.4131   -2.3163    0.0000 C.3     1  UNL1       -0.0258
     26 C          10.5460   -0.8763    0.0000 C.3     1  UNL1       -0.0580
     27 C          10.4994    2.9400    0.0000 C.3     1  UNL1       -0.0289
     28 C           3.4038   -3.3948    0.0000 C.3     1  UNL1        0.0590
     29 C           7.5570    0.9508    0.0000 C.3     1  UNL1       -0.0404
     30 C          11.3421    2.3278    0.0000 C.3     1  UNL1       -0.0011
     31 C          10.6001    3.9349    0.0000 C.3     1  UNL1       -0.0612
     32 H           7.8208   -2.6896    0.0000 H       1  UNL1        0.0317
     33 H           8.0443   -2.4941    0.0000 H       1  UNL1        0.0353
     34 H           5.4979   -1.3459    0.0000 H       1  UNL1        0.0392
     35 H          10.5706    0.0297    0.0000 H       1  UNL1        0.0345
     36 H           8.6063   -2.3858    0.0000 H       1  UNL1        0.0272
     37 H           9.3344   -2.0616    0.0000 H       1  UNL1        0.0272
     38 H           9.7957   -1.4268    0.0000 H       1  UNL1        0.0296
     39 H           9.8790   -0.6341    0.0000 H       1  UNL1        0.0296
     40 H          10.8945    0.3102    0.0000 H       1  UNL1        0.0489
     41 H           8.7189    1.8909    0.0000 H       1  UNL1        0.0612
     42 H           7.2748   -3.9645    0.0000 H       1  UNL1        0.0310
     43 H           7.6665   -3.2690    0.0000 H       1  UNL1        0.0310
     44 H           4.7644   -1.3260    0.0000 H       1  UNL1        0.0275
     45 H           3.9663   -1.3099    0.0000 H       1  UNL1        0.0275
     46 H           6.1659   -4.5278    0.0000 H       1  UNL1        0.0572
     47 H           9.3950    3.1090    0.0000 H       1  UNL1        0.0294
     48 H           8.9332    2.4578    0.0000 H       1  UNL1        0.0294
     49 H           5.9052   -1.3592    0.0000 H       1  UNL1        0.0238
     50 H           5.2906   -0.7339    0.0000 H       1  UNL1        0.0238
     51 H           4.6653   -1.3486    0.0000 H       1  UNL1        0.0238
     52 H           3.9397   -4.4106    0.0000 H       1  UNL1        0.0335
     53 H           4.7380   -4.4082    0.0000 H       1  UNL1        0.0335
     54 H           3.2090   -1.7308    0.0000 H       1  UNL1        0.0290
     55 H           2.8013   -2.4172    0.0000 H       1  UNL1        0.0290
     56 H          10.0444   -1.2407    0.0000 H       1  UNL1        0.0234
     57 H          10.9104   -1.3779    0.0000 H       1  UNL1        0.0234
     58 H          11.0476   -0.5119    0.0000 H       1  UNL1        0.0234
     59 H          11.7226    0.9225    0.0000 H       1  UNL1        0.1223
     60 H          11.0653    3.1933    0.0000 H       1  UNL1        0.0311
     61 H           2.8690   -3.0813    0.0000 H       1  UNL1        0.0596
     62 H           8.1234    1.2030    0.0000 H       1  UNL1        0.0275
     63 H           7.3048    1.5172    0.0000 H       1  UNL1        0.0275
     64 H           6.9906    0.6986    0.0000 H       1  UNL1        0.0275
     65 H          11.9372    2.1538    0.0000 H       1  UNL1        0.0427
     66 H          11.6153    2.8843    0.0000 H       1  UNL1        0.0427
     67 H          11.2170    3.8725    0.0000 H       1  UNL1        0.0233
     68 H          10.6625    4.5518    0.0000 H       1  UNL1        0.0233
     69 H           9.9833    3.9974    0.0000 H       1  UNL1        0.0233
     70 H           2.0000   -3.5782    0.0000 H       1  UNL1        0.2098
@<TRIPOS>BOND
     1     8     1    1
     2     1    17    1
     3     2    16    2
     4    28     3    1
     5     3    70    1
     6     4    15    1
     7     4    30    1
     8     4    59    1
     9     5     6    1
    10     5     7    1
    11     5    18    1
    12     5    32    1
    13     6    10    1
    14     6    12    1
    15     6    33    1
    16     7     9    1
    17     7    16    1
    18     7    34    1
    19     8    11    1
    20     8    13    1
    21     8    14    1
    22     9    19    1
    23     9    20    1
    24     9    23    1
    25    10    14    2
    26    10    16    1
    27    11    15    1
    28    11    26    1
    29    11    35    1
    30    12    13    1
    31    12    36    1
    32    12    37    1
    33    13    38    1
    34    13    39    1
    35    14    29    1
    36    15    17    1
    37    15    40    1
    38    17    22    1
    39    17    41    1
    40    18    21    1
    41    18    42    1
    42    18    43    1
    43    19    21    2
    44    19    24    1
    45    20    25    1
    46    20    44    1
    47    20    45    1
    48    21    46    1
    49    22    27    1
    50    22    47    1
    51    22    48    1
    52    23    49    1
    53    23    50    1
    54    23    51    1
    55    24    28    1
    56    24    52    1
    57    24    53    1
    58    25    28    1
    59    25    54    1
    60    25    55    1
    61    26    56    1
    62    26    57    1
    63    26    58    1
    64    27    30    1
    65    27    31    1
    66    27    60    1
    67    28    61    1
    68    29    62    1
    69    29    63    1
    70    29    64    1
    71    30    65    1
    72    30    66    1
    73    31    67    1
    74    31    68    1
    75    31    69    1
