@<TRIPOS>MOLECULE
IMPHY008127
 77 82 0 0 0
SMALL
GASTEIGER

@<TRIPOS>ATOM
      1 O           7.8089    0.0668    0.0000 O.3     1  UNL1       -0.3757
      2 O           6.7757    0.6813    0.0000 O.3     1  UNL1       -0.4182
      3 O           6.7718    2.7338    0.0000 O.3     1  UNL1       -0.4914
      4 O           5.8982    2.1746    0.0000 O.2     1  UNL1       -0.2440
      5 N          11.1845    1.2088    0.0000 N.3     1  UNL1       -0.2850
      6 N           4.1738    1.1614    0.0000 N.4     1  UNL1        0.2472
      7 N           2.6169   -1.1825    0.0000 N.ar    1  UNL1       -0.3604
      8 C          10.3149    0.7067    0.0000 C.3     1  UNL1        0.0755
      9 C           9.2952    0.5036    0.0000 C.3     1  UNL1        0.0039
     10 C          10.5250   -0.2691    0.0000 C.2     1  UNL1       -0.0256
     11 C           9.4454    1.2088    0.0000 C.ar    1  UNL1       -0.0158
     12 C          11.1845    2.2129    0.0000 C.3     1  UNL1        0.0043
     13 C          11.9245    0.5389    0.0000 C.3     1  UNL1        0.0188
     14 C           8.7757   -0.1886    0.0000 C.3     1  UNL1        0.0790
     15 C          10.3149    2.7150    0.0000 C.3     1  UNL1       -0.0144
     16 C           9.4454    2.2129    0.0000 C.ar    1  UNL1       -0.0372
     17 C          11.5178   -0.3726    0.0000 C.2     1  UNL1       -0.0648
     18 C          10.0186   -0.9117    0.0000 C.2     1  UNL1       -0.0583
     19 C           8.8887   -1.0699    0.0000 C.2     1  UNL1       -0.0553
     20 C           8.5477    0.6719    0.0000 C.ar    1  UNL1       -0.0100
     21 C           8.5477    2.7498    0.0000 C.ar    1  UNL1       -0.0127
     22 C           7.6378    1.1879    0.0000 C.ar    1  UNL1        0.1735
     23 C           7.6378    2.2338    0.0000 C.ar    1  UNL1        0.1625
     24 C           5.0437    0.6680    0.0000 C.3     1  UNL1        0.0833
     25 C           5.0513   -0.3320    0.0000 C.3     1  UNL1        0.0281
     26 C           5.9058    1.1746    0.0000 C.2     1  UNL1        0.3618
     27 C           7.1043   -0.6429    0.0000 C.3     1  UNL1        0.0372
     28 C           3.3040    1.6547    0.0000 C.3     1  UNL1       -0.0410
     29 C           4.6672    2.0312    0.0000 C.3     1  UNL1       -0.0410
     30 C           3.6805    0.2915    0.0000 C.3     1  UNL1       -0.0410
     31 C           4.1892   -0.8386    0.0000 C.ar    1  UNL1       -0.0165
     32 C           4.0937   -1.8281    0.0000 C.ar    1  UNL1        0.0030
     33 C           6.7718    3.7338    0.0000 C.3     1  UNL1        0.0790
     34 C           3.2783   -0.4404    0.0000 C.ar    1  UNL1        0.0061
     35 C           3.1168   -2.0418    0.0000 C.ar    1  UNL1        0.0467
     36 C           4.7672   -2.5672    0.0000 C.ar    1  UNL1       -0.0523
     37 C           2.8134   -2.9946    0.0000 C.ar    1  UNL1       -0.0378
     38 C           4.4638   -3.5201    0.0000 C.ar    1  UNL1       -0.0611
     39 C           3.4869   -3.7338    0.0000 C.ar    1  UNL1       -0.0598
     40 H           9.3470    1.1214    0.0000 H       1  UNL1        0.0318
     41 H           8.7158    0.7242    0.0000 H       1  UNL1        0.0318
     42 H          11.7951    2.1052    0.0000 H       1  UNL1        0.0430
     43 H          11.3966    2.7955    0.0000 H       1  UNL1        0.0430
     44 H          12.4610    0.2282    0.0000 H       1  UNL1        0.0470
     45 H          12.2900    1.0398    0.0000 H       1  UNL1        0.0470
     46 H           9.1555    0.3971    0.0000 H       1  UNL1        0.0641
     47 H          10.7135    3.1899    0.0000 H       1  UNL1        0.0326
     48 H           9.9164    3.1899    0.0000 H       1  UNL1        0.0326
     49 H          11.8278   -0.9096    0.0000 H       1  UNL1        0.0588
     50 H          10.3274   -1.4494    0.0000 H       1  UNL1        0.0619
     51 H           8.5124   -1.5627    0.0000 H       1  UNL1        0.0598
     52 H           8.5548    0.0519    0.0000 H       1  UNL1        0.0659
     53 H           8.5548    3.3698    0.0000 H       1  UNL1        0.0658
     54 H           4.5091    0.3539    0.0000 H       1  UNL1        0.0973
     55 H           5.2678   -0.9129    0.0000 H       1  UNL1        0.0375
     56 H           5.6611   -0.2196    0.0000 H       1  UNL1        0.0375
     57 H           6.6643   -0.2060    0.0000 H       1  UNL1        0.0524
     58 H           6.6675   -1.0828    0.0000 H       1  UNL1        0.0524
     59 H           7.5443   -1.0797    0.0000 H       1  UNL1        0.0524
     60 H           5.2065    1.7253    0.0000 H       1  UNL1        0.0778
     61 H           4.9731    2.5705    0.0000 H       1  UNL1        0.0778
     62 H           3.1412    0.5974    0.0000 H       1  UNL1        0.0778
     63 H           4.1279    2.3371    0.0000 H       1  UNL1        0.0778
     64 H           3.6099    2.1940    0.0000 H       1  UNL1        0.0778
     65 H           2.7647    1.9606    0.0000 H       1  UNL1        0.0778
     66 H           2.9981    1.1154    0.0000 H       1  UNL1        0.0778
     67 H           3.3746   -0.2478    0.0000 H       1  UNL1        0.0778
     68 H           4.2198   -0.0143    0.0000 H       1  UNL1        0.0778
     69 H           3.1458    0.1653    0.0000 H       1  UNL1        0.0810
     70 H           7.3918    3.7338    0.0000 H       1  UNL1        0.0660
     71 H           6.7718    4.3538    0.0000 H       1  UNL1        0.0660
     72 H           6.1518    3.7338    0.0000 H       1  UNL1        0.0660
     73 H           2.0000   -1.1203    0.0000 H       1  UNL1        0.1653
     74 H           5.3729   -2.4347    0.0000 H       1  UNL1        0.0624
     75 H           2.2077   -3.1271    0.0000 H       1  UNL1        0.0638
     76 H           4.8814   -3.9784    0.0000 H       1  UNL1        0.0618
     77 H           3.2988   -4.3246    0.0000 H       1  UNL1        0.0618
@<TRIPOS>UNITY_ATOM_ATTR
6 1
charge 1
@<TRIPOS>BOND
     1    14     1    1
     2     1    27    1
     3     2    22    1
     4     2    26    1
     5     3    23    1
     6     3    33    1
     7     4    26    2
     8     5     8    1
     9     5    12    1
    10     5    13    1
    11     6    24    1
    12     6    28    1
    13     6    29    1
    14     6    30    1
    15     7    34   ar
    16     7    35   ar
    17     7    73    1
    18     8     9    1
    19     8    10    1
    20     8    11    1
    21     9    14    1
    22     9    40    1
    23     9    41    1
    24    10    17    2
    25    10    18    1
    26    11    16   ar
    27    11    20   ar
    28    12    15    1
    29    12    42    1
    30    12    43    1
    31    13    17    1
    32    13    44    1
    33    13    45    1
    34    14    19    1
    35    14    46    1
    36    15    16    1
    37    15    47    1
    38    15    48    1
    39    16    21   ar
    40    17    49    1
    41    18    19    2
    42    18    50    1
    43    19    51    1
    44    20    22   ar
    45    20    52    1
    46    21    23   ar
    47    21    53    1
    48    22    23   ar
    49    24    25    1
    50    24    26    1
    51    24    54    1
    52    25    31    1
    53    25    55    1
    54    25    56    1
    55    27    57    1
    56    27    58    1
    57    27    59    1
    58    28    64    1
    59    28    65    1
    60    28    66    1
    61    29    60    1
    62    29    61    1
    63    29    63    1
    64    30    62    1
    65    30    67    1
    66    30    68    1
    67    31    32   ar
    68    31    34   ar
    69    32    35   ar
    70    32    36   ar
    71    33    70    1
    72    33    71    1
    73    33    72    1
    74    34    69    1
    75    35    37   ar
    76    36    38   ar
    77    36    74    1
    78    37    39   ar
    79    37    75    1
    80    38    39   ar
    81    38    76    1
    82    39    77    1
