@<TRIPOS>MOLECULE
IMPHY006118
 50 53 0 0 0
SMALL
GASTEIGER

@<TRIPOS>ATOM
      1 O           4.5789   -3.6738    0.0000 O.3     1  UNL1       -0.4523
      2 O           3.1336   -4.5232    0.0000 O.3     1  UNL1       -0.4526
      3 O           3.7898   -0.9433    0.0000 O.2     1  UNL1       -0.2917
      4 O           3.7777    4.1259    0.0000 O.3     1  UNL1       -0.4914
      5 O           2.0038    3.1018    0.0000 O.3     1  UNL1       -0.4914
      6 N           4.6559   -0.4433    0.0000 N.3     1  UNL1       -0.3007
      7 C           4.6559   -1.4433    0.0000 C.3     1  UNL1        0.0276
      8 C           3.7898   -1.9433    0.0000 C.ar    1  UNL1        0.0156
      9 C           5.5219    0.0567    0.0000 C.3     1  UNL1        0.0029
     10 C           5.5219    1.0567    0.0000 C.3     1  UNL1       -0.0141
     11 C           2.9238   -1.4433    0.0000 C.ar    1  UNL1       -0.0318
     12 C           4.6559    1.5567    0.0000 C.ar    1  UNL1       -0.0320
     13 C           2.9238   -0.4433    0.0000 C.3     1  UNL1        0.0361
     14 C           3.8059   -2.9848    0.0000 C.ar    1  UNL1        0.1709
     15 C           3.7898    1.0567    0.0000 C.ar    1  UNL1        0.0246
     16 C           3.7898    0.0567    0.0000 C.2     1  UNL1        0.1678
     17 C           2.9078   -3.5126    0.0000 C.ar    1  UNL1        0.1666
     18 C           2.0138   -1.9502    0.0000 C.ar    1  UNL1       -0.0542
     19 C           4.6559    0.5567    0.0000 C.3     1  UNL1       -0.0124
     20 C           4.6719    2.5982    0.0000 C.ar    1  UNL1       -0.0124
     21 C           2.0058   -2.9918    0.0000 C.ar    1  UNL1       -0.0159
     22 C           2.8798    1.5635    0.0000 C.ar    1  UNL1       -0.0056
     23 C           3.7739    3.1259    0.0000 C.ar    1  UNL1        0.1618
     24 C           2.8718    2.6051    0.0000 C.ar    1  UNL1        0.1622
     25 C           4.1642   -4.6226    0.0000 C.3     1  UNL1        0.2332
     26 C           4.6457    4.6226    0.0000 C.3     1  UNL1        0.0790
     27 C           2.0000    4.1018    0.0000 C.3     1  UNL1        0.0790
     28 H           4.8679   -2.0260    0.0000 H       1  UNL1        0.0477
     29 H           5.2664   -1.3357    0.0000 H       1  UNL1        0.0477
     30 H           5.7339   -0.5260    0.0000 H       1  UNL1        0.0430
     31 H           6.1325    0.1643    0.0000 H       1  UNL1        0.0430
     32 H           6.1325    0.9490    0.0000 H       1  UNL1        0.0326
     33 H           5.7339    1.6393    0.0000 H       1  UNL1        0.0326
     34 H           2.7118    0.1393    0.0000 H       1  UNL1        0.0394
     35 H           2.3132   -0.5510    0.0000 H       1  UNL1        0.0394
     36 H           1.4805   -1.6340    0.0000 H       1  UNL1        0.0622
     37 H           5.2759    0.5567    0.0000 H       1  UNL1        0.0391
     38 H           4.6559    1.1767    0.0000 H       1  UNL1        0.0391
     39 H           4.0359    0.5567    0.0000 H       1  UNL1        0.0391
     40 H           5.2124    2.9019    0.0000 H       1  UNL1        0.0658
     41 H           1.4676   -3.2997    0.0000 H       1  UNL1        0.0655
     42 H           2.3465    1.2473    0.0000 H       1  UNL1        0.0662
     43 H           4.0402   -5.2300    0.0000 H       1  UNL1        0.1166
     44 H           4.7553   -4.8098    0.0000 H       1  UNL1        0.1166
     45 H           4.9536    4.0844    0.0000 H       1  UNL1        0.0660
     46 H           5.1838    4.9305    0.0000 H       1  UNL1        0.0660
     47 H           4.3378    5.1607    0.0000 H       1  UNL1        0.0660
     48 H           2.6200    4.1041    0.0000 H       1  UNL1        0.0660
     49 H           1.9976    4.7218    0.0000 H       1  UNL1        0.0660
     50 H           1.3800    4.0994    0.0000 H       1  UNL1        0.0660
@<TRIPOS>BOND
     1     1    14    1
     2     1    25    1
     3     2    17    1
     4     2    25    1
     5     3    16    2
     6     4    23    1
     7     4    26    1
     8     5    24    1
     9     5    27    1
    10     6     7    1
    11     6     9    1
    12     6    19    1
    13     7     8    1
    14     7    28    1
    15     7    29    1
    16     8    11   ar
    17     8    14   ar
    18     9    10    1
    19     9    30    1
    20     9    31    1
    21    10    12    1
    22    10    32    1
    23    10    33    1
    24    11    13    1
    25    11    18   ar
    26    12    15   ar
    27    12    20   ar
    28    13    16    1
    29    13    34    1
    30    13    35    1
    31    14    17   ar
    32    15    16    1
    33    15    22   ar
    34    17    21   ar
    35    18    21   ar
    36    18    36    1
    37    19    37    1
    38    19    38    1
    39    19    39    1
    40    20    23   ar
    41    20    40    1
    42    21    41    1
    43    22    24   ar
    44    22    42    1
    45    23    24   ar
    46    25    43    1
    47    25    44    1
    48    26    45    1
    49    26    46    1
    50    26    47    1
    51    27    48    1
    52    27    49    1
    53    27    50    1
