@<TRIPOS>MOLECULE
IMPHY006937
 24 23 0 0 0
SMALL
GASTEIGER

@<TRIPOS>ATOM
      1 O           6.3301   -0.2500    0.0000 O.3     1  UNL1       -0.3800
      2 C           3.7320    0.2500    0.0000 C.3     1  UNL1       -0.0512
      3 C           4.5981   -0.2500    0.0000 C.3     1  UNL1       -0.0295
      4 C           2.8660   -0.2500    0.0000 C.3     1  UNL1       -0.0558
      5 C           5.4641    0.2500    0.0000 C.3     1  UNL1        0.0476
      6 C           2.0000    0.2500    0.0000 C.3     1  UNL1       -0.0653
      7 C           7.1962    0.2500    0.0000 C.3     1  UNL1        0.0448
      8 C           8.0622   -0.2500    0.0000 C.3     1  UNL1       -0.0416
      9 H           4.1306    0.7249    0.0000 H       1  UNL1        0.0266
     10 H           3.3335    0.7249    0.0000 H       1  UNL1        0.0266
     11 H           4.1996   -0.7249    0.0000 H       1  UNL1        0.0287
     12 H           4.9966   -0.7249    0.0000 H       1  UNL1        0.0287
     13 H           2.4675   -0.7249    0.0000 H       1  UNL1        0.0263
     14 H           3.2646   -0.7249    0.0000 H       1  UNL1        0.0263
     15 H           5.8626    0.7249    0.0000 H       1  UNL1        0.0560
     16 H           5.0656    0.7249    0.0000 H       1  UNL1        0.0560
     17 H           2.3100    0.7869    0.0000 H       1  UNL1        0.0230
     18 H           1.4631    0.5600    0.0000 H       1  UNL1        0.0230
     19 H           1.6900   -0.2869    0.0000 H       1  UNL1        0.0230
     20 H           7.5947    0.7249    0.0000 H       1  UNL1        0.0557
     21 H           6.7976    0.7249    0.0000 H       1  UNL1        0.0557
     22 H           7.7522   -0.7869    0.0000 H       1  UNL1        0.0252
     23 H           8.5991   -0.5600    0.0000 H       1  UNL1        0.0252
     24 H           8.3722    0.2869    0.0000 H       1  UNL1        0.0252
@<TRIPOS>BOND
     1     1     5    1
     2     1     7    1
     3     2     3    1
     4     2     4    1
     5     2     9    1
     6     2    10    1
     7     3     5    1
     8     3    11    1
     9     3    12    1
    10     4     6    1
    11     4    13    1
    12     4    14    1
    13     5    15    1
    14     5    16    1
    15     6    17    1
    16     6    18    1
    17     6    19    1
    18     7     8    1
    19     7    20    1
    20     7    21    1
    21     8    22    1
    22     8    23    1
    23     8    24    1
