@<TRIPOS>MOLECULE
IMPHY001770
 54 59 0 0 0
SMALL
GASTEIGER

@<TRIPOS>ATOM
      1 O           4.8692    2.2338    0.0000 O.3     1  UNL1       -0.3475
      2 O           5.4834   -0.3397    0.0000 O.3     1  UNL1       -0.3849
      3 O           3.4854   -0.4280    0.0000 O.3     1  UNL1       -0.3864
      4 O           2.4099    1.2582    0.0000 O.3     1  UNL1       -0.3865
      5 O          10.5810    0.8348    0.0000 O.3     1  UNL1       -0.4520
      6 O           6.4937    3.1903    0.0000 O.2     1  UNL1       -0.2695
      7 O           2.3334    2.9886    0.0000 O.3     1  UNL1       -0.3924
      8 O          10.5810    2.4443    0.0000 O.3     1  UNL1       -0.4526
      9 O           7.0105   -2.5113    0.0000 O.3     1  UNL1       -0.4945
     10 N           6.4060    1.4348    0.0000 N.am    1  UNL1       -0.2378
     11 C           5.4069    1.3907    0.0000 C.3     1  UNL1        0.1606
     12 C           4.9457    0.5034    0.0000 C.3     1  UNL1        0.1266
     13 C           3.9466    0.4593    0.0000 C.3     1  UNL1        0.1133
     14 C           3.4089    1.3024    0.0000 C.3     1  UNL1        0.1118
     15 C           3.8702    2.1896    0.0000 C.3     1  UNL1        0.1123
     16 C           6.9928    0.6327    0.0000 C.ar    1  UNL1        0.0484
     17 C           7.9028    1.1396    0.0000 C.ar    1  UNL1        0.0201
     18 C           7.9028    2.1396    0.0000 C.ar    1  UNL1        0.0505
     19 C           6.9197    2.2855    0.0000 C.2     1  UNL1        0.2537
     20 C           8.7688    0.6396    0.0000 C.ar    1  UNL1        0.0379
     21 C           3.3324    3.0327    0.0000 C.3     1  UNL1        0.0730
     22 C           6.9847   -0.4089    0.0000 C.ar    1  UNL1       -0.0283
     23 C           8.7849   -0.4019    0.0000 C.ar    1  UNL1       -0.0029
     24 C           7.8868   -0.9297    0.0000 C.ar    1  UNL1        0.0263
     25 C           9.6348    1.1396    0.0000 C.ar    1  UNL1        0.1746
     26 C           8.7688    2.6396    0.0000 C.ar    1  UNL1       -0.0034
     27 C           9.6348    2.1396    0.0000 C.ar    1  UNL1        0.1676
     28 C           7.8784   -2.0146    0.0000 C.ar    1  UNL1        0.1278
     29 C           9.7368   -0.9226    0.0000 C.ar    1  UNL1       -0.0531
     30 C          11.1646    1.6396    0.0000 C.3     1  UNL1        0.2333
     31 C           8.8181   -2.5572    0.0000 C.ar    1  UNL1       -0.0193
     32 C           9.7535   -2.0074    0.0000 C.ar    1  UNL1       -0.0577
     33 C           7.0066   -3.5113    0.0000 C.3     1  UNL1        0.0788
     34 H           5.7404    0.8679    0.0000 H       1  UNL1        0.0841
     35 H           4.6597   -0.0467    0.0000 H       1  UNL1        0.0663
     36 H           3.3272    0.4319    0.0000 H       1  UNL1        0.0647
     37 H           3.0755    1.8251    0.0000 H       1  UNL1        0.0647
     38 H           4.1562    2.7397    0.0000 H       1  UNL1        0.0646
     39 H           3.9051    3.2703    0.0000 H       1  UNL1        0.0584
     40 H           3.1979    3.6380    0.0000 H       1  UNL1        0.0584
     41 H           6.4466   -0.7168    0.0000 H       1  UNL1        0.0644
     42 H           8.7688    3.2596    0.0000 H       1  UNL1        0.0663
     43 H           5.1974   -0.8898    0.0000 H       1  UNL1        0.2101
     44 H           2.8660   -0.4554    0.0000 H       1  UNL1        0.2100
     45 H           2.1239    0.7081    0.0000 H       1  UNL1        0.2100
     46 H          10.2676   -0.6023    0.0000 H       1  UNL1        0.0624
     47 H          11.6255    1.2248    0.0000 H       1  UNL1        0.1166
     48 H          11.6255    2.0543    0.0000 H       1  UNL1        0.1166
     49 H           2.0000    3.5113    0.0000 H       1  UNL1        0.2095
     50 H           8.8205   -3.1772    0.0000 H       1  UNL1        0.0654
     51 H          10.2940   -2.3112    0.0000 H       1  UNL1        0.0619
     52 H           6.3867   -3.5089    0.0000 H       1  UNL1        0.0660
     53 H           7.0043   -4.1313    0.0000 H       1  UNL1        0.0660
     54 H           7.6266   -3.5137    0.0000 H       1  UNL1        0.0660
@<TRIPOS>BOND
     1     1    11    1
     2     1    15    1
     3    12     2    1
     4     2    43    1
     5    13     3    1
     6     3    44    1
     7    14     4    1
     8     4    45    1
     9     5    25    1
    10     5    30    1
    11     6    19    2
    12     7    21    1
    13     7    49    1
    14     8    27    1
    15     8    30    1
    16     9    28    1
    17     9    33    1
    18    11    10    1
    19    10    16    1
    20    10    19   am
    21    11    12    1
    22    11    34    1
    23    12    13    1
    24    12    35    1
    25    13    14    1
    26    13    36    1
    27    14    15    1
    28    14    37    1
    29    15    21    1
    30    15    38    1
    31    16    17   ar
    32    16    22   ar
    33    17    18   ar
    34    17    20   ar
    35    18    19    1
    36    18    26   ar
    37    20    23   ar
    38    20    25   ar
    39    21    39    1
    40    21    40    1
    41    22    24   ar
    42    22    41    1
    43    23    24   ar
    44    23    29   ar
    45    24    28   ar
    46    25    27   ar
    47    26    27   ar
    48    26    42    1
    49    28    31   ar
    50    29    32   ar
    51    29    46    1
    52    30    47    1
    53    30    48    1
    54    31    32   ar
    55    31    50    1
    56    32    51    1
    57    33    52    1
    58    33    53    1
    59    33    54    1
