@<TRIPOS>MOLECULE
IMPHY006000
 53 55 0 0 0
SMALL
GASTEIGER

@<TRIPOS>ATOM
      1 O           2.0000   -2.1039    0.0000 O.2     1  UNL1       -0.2968
      2 O           7.2622   -2.0798    0.0000 O.2     1  UNL1       -0.2920
      3 O           4.6423    1.4517    0.0000 O.3     1  UNL1       -0.5031
      4 O           6.4082    2.4895    0.0000 O.3     1  UNL1       -0.4912
      5 C           4.6641   -0.5798    0.0000 C.3     1  UNL1        0.0017
      6 C           4.6641   -1.5798    0.0000 C.3     1  UNL1       -0.0127
      7 C           3.7702   -2.1144    0.0000 C.3     1  UNL1        0.0274
      8 C           3.7702   -0.0451    0.0000 C.3     1  UNL1       -0.0365
      9 C           5.5301   -2.0798    0.0000 C.3     1  UNL1        0.0150
     10 C           5.5301   -0.0798    0.0000 C.ar    1  UNL1        0.0144
     11 C           2.8641   -0.5589    0.0000 C.3     1  UNL1        0.0072
     12 C           2.8641   -1.6006    0.0000 C.2     1  UNL1        0.1393
     13 C           4.6641    0.4202    0.0000 C.3     1  UNL1       -0.0551
     14 C           3.2802   -2.9862    0.0000 C.3     1  UNL1       -0.0528
     15 C           4.2801   -2.9746    0.0000 C.3     1  UNL1       -0.0528
     16 C           6.3961   -0.5798    0.0000 C.ar    1  UNL1        0.0251
     17 C           6.3961   -1.5798    0.0000 C.2     1  UNL1        0.1639
     18 C           5.5141    0.9618    0.0000 C.ar    1  UNL1        0.1632
     19 C           7.3062   -0.0729    0.0000 C.ar    1  UNL1       -0.0439
     20 C           6.4121    1.4895    0.0000 C.ar    1  UNL1        0.1650
     21 C           7.3142    0.9687    0.0000 C.ar    1  UNL1        0.0012
     22 C           8.1821    1.4654    0.0000 C.3     1  UNL1       -0.0179
     23 C           9.0462    0.9620    0.0000 C.3     1  UNL1       -0.0585
     24 C           8.1860    2.4654    0.0000 C.3     1  UNL1       -0.0585
     25 C           5.5403    2.9862    0.0000 C.3     1  UNL1        0.0790
     26 H           4.6706   -2.4297    0.0000 H       1  UNL1        0.0323
     27 H           4.1748    0.4247    0.0000 H       1  UNL1        0.0278
     28 H           3.3765    0.4339    0.0000 H       1  UNL1        0.0278
     29 H           5.1316   -2.5547    0.0000 H       1  UNL1        0.0348
     30 H           5.9286   -2.5547    0.0000 H       1  UNL1        0.0348
     31 H           2.6550    0.0248    0.0000 H       1  UNL1        0.0342
     32 H           2.2532   -0.6650    0.0000 H       1  UNL1        0.0342
     33 H           5.2841    0.4202    0.0000 H       1  UNL1        0.0238
     34 H           4.6641    1.0402    0.0000 H       1  UNL1        0.0238
     35 H           4.0441    0.4202    0.0000 H       1  UNL1        0.0238
     36 H           3.7468   -3.2908    0.0000 H       1  UNL1        0.0239
     37 H           4.5963   -3.5079    0.0000 H       1  UNL1        0.0239
     38 H           4.8134   -2.6584    0.0000 H       1  UNL1        0.0239
     39 H           2.7397   -2.6824    0.0000 H       1  UNL1        0.0239
     40 H           2.9764   -3.5266    0.0000 H       1  UNL1        0.0239
     41 H           3.8207   -3.2899    0.0000 H       1  UNL1        0.0239
     42 H           7.8395   -0.3891    0.0000 H       1  UNL1        0.0629
     43 H           8.7203    1.7733    0.0000 H       1  UNL1        0.0345
     44 H           4.6352    2.0717    0.0000 H       1  UNL1        0.2923
     45 H           8.8060    2.4630    0.0000 H       1  UNL1        0.0235
     46 H           8.1884    3.0853    0.0000 H       1  UNL1        0.0235
     47 H           7.5660    2.4677    0.0000 H       1  UNL1        0.0235
     48 H           8.7342    0.4263    0.0000 H       1  UNL1        0.0235
     49 H           9.5820    0.6500    0.0000 H       1  UNL1        0.0235
     50 H           9.3583    1.4978    0.0000 H       1  UNL1        0.0235
     51 H           5.8482    3.5243    0.0000 H       1  UNL1        0.0660
     52 H           5.0022    3.2941    0.0000 H       1  UNL1        0.0660
     53 H           5.2324    2.4480    0.0000 H       1  UNL1        0.0660
@<TRIPOS>BOND
     1     1    12    2
     2     2    17    2
     3     3    18    1
     4     3    44    1
     5     4    20    1
     6     4    25    1
     7     5     6    1
     8     5     8    1
     9     5    10    1
    10     5    13    1
    11     6     7    1
    12     6     9    1
    13     6    26    1
    14     7    12    1
    15     7    14    1
    16     7    15    1
    17     8    11    1
    18     8    27    1
    19     8    28    1
    20     9    17    1
    21     9    29    1
    22     9    30    1
    23    10    16   ar
    24    10    18   ar
    25    11    12    1
    26    11    31    1
    27    11    32    1
    28    13    33    1
    29    13    34    1
    30    13    35    1
    31    14    39    1
    32    14    40    1
    33    14    41    1
    34    15    36    1
    35    15    37    1
    36    15    38    1
    37    16    17    1
    38    16    19   ar
    39    18    20   ar
    40    19    21   ar
    41    19    42    1
    42    20    21   ar
    43    21    22    1
    44    22    23    1
    45    22    24    1
    46    22    43    1
    47    23    48    1
    48    23    49    1
    49    23    50    1
    50    24    45    1
    51    24    46    1
    52    24    47    1
    53    25    51    1
    54    25    52    1
    55    25    53    1
