@<TRIPOS>MOLECULE
IMPHY016531
 35 36 0 0 0
SMALL
GASTEIGER

@<TRIPOS>ATOM
      1 C           4.3660    1.7318    0.0000 C.3     1  UNL1       -0.0162
      2 C           5.2323    2.2323    0.0000 C.3     1  UNL1       -0.0249
      3 C           5.2320    1.2318    0.0000 C.2     1  UNL1       -0.0695
      4 C           3.5000    1.2318    0.0000 C.3     1  UNL1       -0.0462
      5 C           2.5000    1.2318    0.0000 C.3     1  UNL1       -0.0525
      6 C           5.2320    0.2318    0.0000 C.2     1  UNL1       -0.0845
      7 C           2.0000    0.3658    0.0000 C.3     1  UNL1       -0.0530
      8 C           4.8660   -0.8662    0.0000 C.3     1  UNL1       -0.0345
      9 C           2.5000   -0.5002    0.0000 C.3     1  UNL1       -0.0531
     10 C           4.0000   -1.3662    0.0000 C.3     1  UNL1       -0.0496
     11 C           2.0000   -1.3662    0.0000 C.3     1  UNL1       -0.0531
     12 C           3.5000   -2.2323    0.0000 C.3     1  UNL1       -0.0528
     13 C           2.5000   -2.2323    0.0000 C.3     1  UNL1       -0.0530
     14 H           4.0560    2.2687    0.0000 H       1  UNL1        0.0349
     15 H           5.8429    2.3399    0.0000 H       1  UNL1        0.0316
     16 H           5.0202    2.8149    0.0000 H       1  UNL1        0.0316
     17 H           3.2880    0.6492    0.0000 H       1  UNL1        0.0271
     18 H           3.3395    1.8307    0.0000 H       1  UNL1        0.0271
     19 H           2.6077    1.8424    0.0000 H       1  UNL1        0.0265
     20 H           1.9174    1.4439    0.0000 H       1  UNL1        0.0265
     21 H           5.8440    0.1325    0.0000 H       1  UNL1        0.0572
     22 H           1.5250    0.7643    0.0000 H       1  UNL1        0.0265
     23 H           1.5250   -0.0327    0.0000 H       1  UNL1        0.0265
     24 H           5.0145   -1.4682    0.0000 H       1  UNL1        0.0307
     25 H           5.4855   -0.8910    0.0000 H       1  UNL1        0.0307
     26 H           2.9750   -0.8988    0.0000 H       1  UNL1        0.0265
     27 H           2.9750   -0.1017    0.0000 H       1  UNL1        0.0265
     28 H           3.8923   -0.7557    0.0000 H       1  UNL1        0.0268
     29 H           4.4384   -1.8046    0.0000 H       1  UNL1        0.0268
     30 H           1.5250   -0.9677    0.0000 H       1  UNL1        0.0265
     31 H           1.5250   -1.7648    0.0000 H       1  UNL1        0.0265
     32 H           1.9174   -2.4443    0.0000 H       1  UNL1        0.0265
     33 H           2.6077   -2.8428    0.0000 H       1  UNL1        0.0265
     34 H           3.3923   -2.8428    0.0000 H       1  UNL1        0.0265
     35 H           4.0826   -2.4443    0.0000 H       1  UNL1        0.0265
@<TRIPOS>BOND
     1     1     2    1
     2     1     3    1
     3     1     4    1
     4     1    14    1
     5     2     3    1
     6     2    15    1
     7     2    16    1
     8     3     6    2
     9     4     5    1
    10     4    17    1
    11     4    18    1
    12     5     7    1
    13     5    19    1
    14     5    20    1
    15     6     8    1
    16     6    21    1
    17     7     9    1
    18     7    22    1
    19     7    23    1
    20     8    10    1
    21     8    24    1
    22     8    25    1
    23     9    11    1
    24     9    26    1
    25     9    27    1
    26    10    12    1
    27    10    28    1
    28    10    29    1
    29    11    13    1
    30    11    30    1
    31    11    31    1
    32    12    13    1
    33    12    34    1
    34    12    35    1
    35    13    32    1
    36    13    33    1
