@<TRIPOS>MOLECULE
IMPHY006835
 100 105 0 0 0
SMALL
GASTEIGER

@<TRIPOS>ATOM
      1 O           6.8970    1.4516    0.0000 O.3     1  UNL1       -0.3719
      2 O           8.7710    0.7933    0.0000 O.3     1  UNL1       -0.4544
      3 O           5.5138   -2.5073    0.0000 O.3     1  UNL1       -0.4608
      4 O           3.7320    0.5514    0.0000 O.3     1  UNL1       -0.4608
      5 O           9.9240   -2.7599    0.0000 O.3     1  UNL1       -0.4570
      6 O           7.2622   -4.2048    0.0000 O.3     1  UNL1       -0.4679
      7 O           8.7622   -3.3387    0.0000 O.2     1  UNL1       -0.2509
      8 O           7.4442    1.9067    0.0000 O.2     1  UNL1       -0.2449
      9 O           3.7818   -2.5273    0.0000 O.2     1  UNL1       -0.2512
     10 O           2.8602   -0.9452    0.0000 O.2     1  UNL1       -0.2512
     11 O          13.0149    0.6151    0.0000 O.2     1  UNL1       -0.4707
     12 O          11.0829   -4.0470    0.0000 O.2     1  UNL1       -0.2511
     13 C           6.3961    0.0273    0.0000 C.3     1  UNL1        0.0087
     14 C           6.3961   -0.9727    0.0000 C.3     1  UNL1        0.0153
     15 C           5.5022    0.5620    0.0000 C.3     1  UNL1        0.0343
     16 C           7.2622   -1.4727    0.0000 C.3     1  UNL1       -0.0092
     17 C           7.2622    0.5273    0.0000 C.3     1  UNL1        0.1005
     18 C           8.1282   -0.9727    0.0000 C.3     1  UNL1        0.0360
     19 C           8.1282    0.0273    0.0000 C.3     1  UNL1        0.1390
     20 C           5.5022   -1.5074    0.0000 C.3     1  UNL1        0.1124
     21 C           4.5961    0.0481    0.0000 C.3     1  UNL1        0.1142
     22 C           5.9034    1.4712    0.0000 C.3     1  UNL1        0.0573
     23 C           4.5961   -0.9935    0.0000 C.3     1  UNL1        0.0227
     24 C           6.3961   -1.9727    0.0000 C.3     1  UNL1       -0.0555
     25 C           9.1282   -0.9727    0.0000 C.2     1  UNL1       -0.0202
     26 C           7.2622   -2.4727    0.0000 C.3     1  UNL1        0.0493
     27 C           5.0122    1.4337    0.0000 C.3     1  UNL1       -0.0537
     28 C           8.6282   -1.8387    0.0000 C.3     1  UNL1       -0.0519
     29 C           9.7160   -1.7817    0.0000 C.3     1  UNL1        0.1258
     30 C           9.7160   -0.1637    0.0000 C.2     1  UNL1       -0.0617
     31 C          10.6670   -0.4727    0.0000 C.3     1  UNL1        0.0119
     32 C          10.6670   -1.4727    0.0000 C.3     1  UNL1       -0.0011
     33 C           7.7622   -3.3387    0.0000 C.2     1  UNL1        0.3071
     34 C           9.7509    0.8357    0.0000 C.3     1  UNL1       -0.0428
     35 C           8.4290    1.7330    0.0000 C.2     1  UNL1        0.3396
     36 C           4.6536   -3.0173    0.0000 C.2     1  UNL1        0.3042
     37 C           2.8641    0.0548    0.0000 C.2     1  UNL1        0.3042
     38 C          11.4760    0.1151    0.0000 C.ar    1  UNL1       -0.0025
     39 C           4.6651   -4.0172    0.0000 C.3     1  UNL1        0.0332
     40 C           9.0717    2.4991    0.0000 C.ar    1  UNL1        0.0590
     41 C           2.0000    0.5581    0.0000 C.3     1  UNL1        0.0332
     42 C          10.8749   -3.0689    0.0000 C.2     1  UNL1        0.3045
     43 C          11.4760    1.1151    0.0000 C.ar    1  UNL1       -0.0202
     44 C          12.4271   -0.1939    0.0000 C.ar    1  UNL1        0.0954
     45 C           6.2622   -4.2048    0.0000 C.3     1  UNL1        0.0817
     46 C          12.4271    1.4241    0.0000 C.ar    1  UNL1        0.0920
     47 C          10.0566    2.3254    0.0000 C.ar    1  UNL1       -0.0478
     48 C           8.7297    3.4388    0.0000 C.ar    1  UNL1       -0.0478
     49 C          11.6181   -2.3998    0.0000 C.3     1  UNL1        0.0333
     50 C          10.6993    3.0915    0.0000 C.ar    1  UNL1       -0.0610
     51 C           9.3725    4.2048    0.0000 C.ar    1  UNL1       -0.0610
     52 C          10.3573    4.0312    0.0000 C.ar    1  UNL1       -0.0617
     53 H           5.6600   -0.3977    0.0000 H       1  UNL1        0.0341
     54 H           7.7991   -1.7827    0.0000 H       1  UNL1        0.0322
     55 H           7.9058    1.0824    0.0000 H       1  UNL1        0.0636
     56 H           8.7108   -0.1848    0.0000 H       1  UNL1        0.0769
     57 H           4.9683   -1.8225    0.0000 H       1  UNL1        0.0741
     58 H           4.5997    0.6681    0.0000 H       1  UNL1        0.0741
     59 H           5.9971    2.0841    0.0000 H       1  UNL1        0.0567
     60 H           5.3082    1.6447    0.0000 H       1  UNL1        0.0567
     61 H           3.9853   -0.8874    0.0000 H       1  UNL1        0.0337
     62 H           4.3871   -1.5772    0.0000 H       1  UNL1        0.0337
     63 H           5.7761   -1.9727    0.0000 H       1  UNL1        0.0236
     64 H           6.3961   -2.5927    0.0000 H       1  UNL1        0.0236
     65 H           7.0161   -1.9727    0.0000 H       1  UNL1        0.0236
     66 H           6.6796   -2.2607    0.0000 H       1  UNL1        0.0381
     67 H           7.8610   -2.3122    0.0000 H       1  UNL1        0.0381
     68 H           5.5527    1.7375    0.0000 H       1  UNL1        0.0237
     69 H           4.7085    1.9742    0.0000 H       1  UNL1        0.0237
     70 H           4.4718    1.1299    0.0000 H       1  UNL1        0.0237
     71 H           8.0912   -2.1487    0.0000 H       1  UNL1        0.0239
     72 H           8.9382   -2.3757    0.0000 H       1  UNL1        0.0239
     73 H           9.1651   -1.5287    0.0000 H       1  UNL1        0.0239
     74 H           9.1496   -2.0339    0.0000 H       1  UNL1        0.0782
     75 H          10.5700    0.1397    0.0000 H       1  UNL1        0.0396
     76 H          10.7959   -2.0792    0.0000 H       1  UNL1        0.0313
     77 H          11.2836   -1.4079    0.0000 H       1  UNL1        0.0313
     78 H          10.3705    0.8141    0.0000 H       1  UNL1        0.0275
     79 H           9.7725    1.4553    0.0000 H       1  UNL1        0.0275
     80 H           9.1312    0.8573    0.0000 H       1  UNL1        0.0275
     81 H           4.0452   -4.0244    0.0000 H       1  UNL1        0.0342
     82 H           4.6723   -4.6372    0.0000 H       1  UNL1        0.0342
     83 H           5.2851   -4.0100    0.0000 H       1  UNL1        0.0342
     84 H           2.3121    1.0938    0.0000 H       1  UNL1        0.0342
     85 H           1.4643    0.8702    0.0000 H       1  UNL1        0.0342
     86 H           1.6879    0.0224    0.0000 H       1  UNL1        0.0342
     87 H          10.9745    1.4795    0.0000 H       1  UNL1        0.0652
     88 H          12.6187   -0.7836    0.0000 H       1  UNL1        0.1032
     89 H           6.2622   -3.5848    0.0000 H       1  UNL1        0.0661
     90 H           5.6422   -4.2048    0.0000 H       1  UNL1        0.0661
     91 H           6.2623   -4.8248    0.0000 H       1  UNL1        0.0661
     92 H          12.6187    2.0138    0.0000 H       1  UNL1        0.1029
     93 H          10.2686    1.7428    0.0000 H       1  UNL1        0.0626
     94 H           8.1191    3.5464    0.0000 H       1  UNL1        0.0626
     95 H          12.0329   -2.8605    0.0000 H       1  UNL1        0.0342
     96 H          12.0788   -1.9849    0.0000 H       1  UNL1        0.0342
     97 H          11.2032   -1.9390    0.0000 H       1  UNL1        0.0342
     98 H          11.3099    2.9838    0.0000 H       1  UNL1        0.0618
     99 H           9.1605    4.7874    0.0000 H       1  UNL1        0.0618
    100 H          10.7558    4.5061    0.0000 H       1  UNL1        0.0618
@<TRIPOS>BOND
     1     1    17    1
     2     1    22    1
     3    19     2    1
     4     2    35    1
     5    20     3    1
     6     3    36    1
     7    21     4    1
     8     4    37    1
     9    29     5    1
    10     5    42    1
    11     6    33    1
    12     6    45    1
    13     7    33    2
    14     8    35    2
    15     9    36    2
    16    10    37    2
    17    11    44   ar
    18    11    46   ar
    19    12    42    2
    20    13    14    1
    21    13    15    1
    22    13    17    1
    23    13    53    1
    24    14    16    1
    25    14    20    1
    26    14    24    1
    27    15    21    1
    28    15    22    1
    29    15    27    1
    30    16    18    1
    31    16    26    1
    32    16    54    1
    33    17    19    1
    34    17    55    1
    35    18    19    1
    36    18    25    1
    37    18    28    1
    38    19    56    1
    39    20    23    1
    40    20    57    1
    41    21    23    1
    42    21    58    1
    43    22    59    1
    44    22    60    1
    45    23    61    1
    46    23    62    1
    47    24    63    1
    48    24    64    1
    49    24    65    1
    50    25    29    1
    51    25    30    2
    52    26    33    1
    53    26    66    1
    54    26    67    1
    55    27    68    1
    56    27    69    1
    57    27    70    1
    58    28    71    1
    59    28    72    1
    60    28    73    1
    61    29    32    1
    62    29    74    1
    63    30    31    1
    64    30    34    1
    65    31    32    1
    66    31    38    1
    67    31    75    1
    68    32    76    1
    69    32    77    1
    70    34    78    1
    71    34    79    1
    72    34    80    1
    73    35    40    1
    74    36    39    1
    75    37    41    1
    76    38    43   ar
    77    38    44   ar
    78    39    81    1
    79    39    82    1
    80    39    83    1
    81    40    47   ar
    82    40    48   ar
    83    41    84    1
    84    41    85    1
    85    41    86    1
    86    42    49    1
    87    43    46   ar
    88    43    87    1
    89    44    88    1
    90    45    89    1
    91    45    90    1
    92    45    91    1
    93    46    92    1
    94    47    50   ar
    95    47    93    1
    96    48    51   ar
    97    48    94    1
    98    49    95    1
    99    49    96    1
   100    49    97    1
   101    50    52   ar
   102    50    98    1
   103    51    52   ar
   104    51    99    1
   105    52   100    1
