@<TRIPOS>MOLECULE
IMPHY001819
 33 34 0 0 0
SMALL
GASTEIGER

@<TRIPOS>ATOM
      1 O           6.3580   -1.0347    0.0000 O.3     1  UNL1       -0.4815
      2 O           2.8660   -1.0000    0.0000 O.3     1  UNL1       -0.4943
      3 O           2.0000    0.5000    0.0000 O.2     1  UNL1       -0.2922
      4 C           7.2641   -0.5208    0.0000 C.3     1  UNL1        0.1235
      5 C           7.2641    0.5208    0.0000 C.2     1  UNL1       -0.0409
      6 C           5.4641   -0.5000    0.0000 C.ar    1  UNL1        0.1324
      7 C           5.4641    0.5000    0.0000 C.ar    1  UNL1        0.0174
      8 C           8.2641   -0.5247    0.0000 C.3     1  UNL1       -0.0215
      9 C           7.7608   -1.3888    0.0000 C.3     1  UNL1       -0.0215
     10 C           6.3580    1.0347    0.0000 C.2     1  UNL1       -0.0513
     11 C           4.5981    1.0000    0.0000 C.ar    1  UNL1       -0.0371
     12 C           4.5981   -1.0000    0.0000 C.ar    1  UNL1        0.0231
     13 C           3.7320    0.5000    0.0000 C.ar    1  UNL1        0.0595
     14 C           3.7320   -0.5000    0.0000 C.ar    1  UNL1        0.1340
     15 C           2.8660    1.0000    0.0000 C.2     1  UNL1        0.1636
     16 C           2.8660    2.0000    0.0000 C.3     1  UNL1       -0.0013
     17 C           2.8660   -2.0000    0.0000 C.3     1  UNL1        0.0788
     18 H           7.7998    0.8329    0.0000 H       1  UNL1        0.0611
     19 H           8.2617   -1.1447    0.0000 H       1  UNL1        0.0271
     20 H           8.8841   -0.5271    0.0000 H       1  UNL1        0.0271
     21 H           8.2665    0.0953    0.0000 H       1  UNL1        0.0271
     22 H           7.2226   -1.6967    0.0000 H       1  UNL1        0.0271
     23 H           8.0687   -1.9269    0.0000 H       1  UNL1        0.0271
     24 H           8.2989   -1.0808    0.0000 H       1  UNL1        0.0271
     25 H           6.3509    1.6546    0.0000 H       1  UNL1        0.0623
     26 H           4.5981    1.6200    0.0000 H       1  UNL1        0.0633
     27 H           4.5981   -1.6200    0.0000 H       1  UNL1        0.0691
     28 H           3.4860    2.0000    0.0000 H       1  UNL1        0.0309
     29 H           2.8660    2.6200    0.0000 H       1  UNL1        0.0309
     30 H           2.2460    2.0000    0.0000 H       1  UNL1        0.0309
     31 H           2.2460   -2.0000    0.0000 H       1  UNL1        0.0660
     32 H           2.8660   -2.6200    0.0000 H       1  UNL1        0.0660
     33 H           3.4860   -2.0000    0.0000 H       1  UNL1        0.0660
@<TRIPOS>BOND
     1     1     4    1
     2     1     6    1
     3     2    14    1
     4     2    17    1
     5     3    15    2
     6     4     5    1
     7     4     8    1
     8     4     9    1
     9     5    10    2
    10     5    18    1
    11     6     7   ar
    12     6    12   ar
    13     7    10    1
    14     7    11   ar
    15     8    19    1
    16     8    20    1
    17     8    21    1
    18     9    22    1
    19     9    23    1
    20     9    24    1
    21    10    25    1
    22    11    13   ar
    23    11    26    1
    24    12    14   ar
    25    12    27    1
    26    13    14   ar
    27    13    15    1
    28    15    16    1
    29    16    28    1
    30    16    29    1
    31    16    30    1
    32    17    31    1
    33    17    32    1
    34    17    33    1
