@<TRIPOS>MOLECULE
IMPHY009630
 54 56 0 0 0
SMALL
GASTEIGER

@<TRIPOS>ATOM
      1 O           6.5468    2.8706    0.0000 O.3     1  UNL1       -0.4641
      2 O           4.8255    3.3318    0.0000 O.2     1  UNL1       -0.2505
      3 O           8.9035   -2.2910    0.0000 O.3     1  UNL1       -0.4914
      4 O           2.8660   -1.8318    0.0000 O.3     1  UNL1       -0.4914
      5 O          10.3898   -0.9528    0.0000 O.3     1  UNL1       -0.4915
      6 O           4.5981   -2.8318    0.0000 O.3     1  UNL1       -0.4915
      7 C           6.3776    1.2614    0.0000 C.3     1  UNL1        0.0105
      8 C           5.4641    1.6682    0.0000 C.3     1  UNL1        0.0666
      9 C           7.0468    2.0046    0.0000 C.3     1  UNL1        0.0963
     10 C           6.5856    0.2833    0.0000 C.3     1  UNL1       -0.0209
     11 C           4.5981    1.1682    0.0000 C.3     1  UNL1       -0.0143
     12 C           5.5686    2.6627    0.0000 C.2     1  UNL1        0.3109
     13 C           7.5366   -0.0257    0.0000 C.ar    1  UNL1       -0.0433
     14 C           4.5981    0.1682    0.0000 C.ar    1  UNL1       -0.0429
     15 C           7.7445   -1.0039    0.0000 C.ar    1  UNL1       -0.0131
     16 C           8.2798    0.6434    0.0000 C.ar    1  UNL1       -0.0549
     17 C           3.7320   -0.3318    0.0000 C.ar    1  UNL1       -0.0131
     18 C           5.4641   -0.3318    0.0000 C.ar    1  UNL1       -0.0549
     19 C           8.6956   -1.3129    0.0000 C.ar    1  UNL1        0.1617
     20 C           3.7320   -1.3318    0.0000 C.ar    1  UNL1        0.1617
     21 C           9.2308    0.3344    0.0000 C.ar    1  UNL1       -0.0160
     22 C           5.4641   -1.3318    0.0000 C.ar    1  UNL1       -0.0160
     23 C           9.4387   -0.6438    0.0000 C.ar    1  UNL1        0.1615
     24 C           4.5981   -1.8318    0.0000 C.ar    1  UNL1        0.1615
     25 C           9.8546   -2.6001    0.0000 C.3     1  UNL1        0.0790
     26 C           2.0000   -1.3318    0.0000 C.3     1  UNL1        0.0790
     27 C          11.1329   -0.2836    0.0000 C.3     1  UNL1        0.0790
     28 C           5.4641   -3.3318    0.0000 C.3     1  UNL1        0.0790
     29 H           5.8958    0.8713    0.0000 H       1  UNL1        0.0345
     30 H           4.9441    2.0058    0.0000 H       1  UNL1        0.0420
     31 H           7.4616    1.5438    0.0000 H       1  UNL1        0.0700
     32 H           7.5484    2.3690    0.0000 H       1  UNL1        0.0700
     33 H           5.9659    0.2617    0.0000 H       1  UNL1        0.0317
     34 H           6.4993   -0.3307    0.0000 H       1  UNL1        0.0317
     35 H           4.3860    1.7508    0.0000 H       1  UNL1        0.0321
     36 H           3.9875    1.0605    0.0000 H       1  UNL1        0.0321
     37 H           7.2838   -1.4187    0.0000 H       1  UNL1        0.0658
     38 H           8.1509    1.2498    0.0000 H       1  UNL1        0.0621
     39 H           3.1951   -0.0218    0.0000 H       1  UNL1        0.0658
     40 H           6.0010   -0.0218    0.0000 H       1  UNL1        0.0621
     41 H           9.6916    0.7492    0.0000 H       1  UNL1        0.0655
     42 H           6.0010   -1.6418    0.0000 H       1  UNL1        0.0655
     43 H           9.6630   -3.1897    0.0000 H       1  UNL1        0.0660
     44 H          10.4442   -2.7917    0.0000 H       1  UNL1        0.0660
     45 H          10.0461   -2.0104    0.0000 H       1  UNL1        0.0660
     46 H           2.3100   -0.7949    0.0000 H       1  UNL1        0.0660
     47 H           1.4631   -1.0218    0.0000 H       1  UNL1        0.0660
     48 H           1.6900   -1.8688    0.0000 H       1  UNL1        0.0660
     49 H          11.5478   -0.7444    0.0000 H       1  UNL1        0.0660
     50 H          11.5937    0.1312    0.0000 H       1  UNL1        0.0660
     51 H          10.7181    0.1771    0.0000 H       1  UNL1        0.0660
     52 H           5.1541   -3.8688    0.0000 H       1  UNL1        0.0660
     53 H           6.0010   -3.6418    0.0000 H       1  UNL1        0.0660
     54 H           5.7741   -2.7949    0.0000 H       1  UNL1        0.0660
@<TRIPOS>BOND
     1     1     9    1
     2     1    12    1
     3     2    12    2
     4     3    19    1
     5     3    25    1
     6     4    20    1
     7     4    26    1
     8     5    23    1
     9     5    27    1
    10     6    24    1
    11     6    28    1
    12     7     8    1
    13     7     9    1
    14     7    10    1
    15     7    29    1
    16     8    11    1
    17     8    12    1
    18     8    30    1
    19     9    31    1
    20     9    32    1
    21    10    13    1
    22    10    33    1
    23    10    34    1
    24    11    14    1
    25    11    35    1
    26    11    36    1
    27    13    15   ar
    28    13    16   ar
    29    14    17   ar
    30    14    18   ar
    31    15    19   ar
    32    15    37    1
    33    16    21   ar
    34    16    38    1
    35    17    20   ar
    36    17    39    1
    37    18    22   ar
    38    18    40    1
    39    19    23   ar
    40    20    24   ar
    41    21    23   ar
    42    21    41    1
    43    22    24   ar
    44    22    42    1
    45    25    43    1
    46    25    44    1
    47    25    45    1
    48    26    46    1
    49    26    47    1
    50    26    48    1
    51    27    49    1
    52    27    50    1
    53    27    51    1
    54    28    52    1
    55    28    53    1
    56    28    54    1
