@<TRIPOS>MOLECULE
IMPHY013068
 35 37 0 0 0
SMALL
GASTEIGER

@<TRIPOS>ATOM
      1 O           4.6660   -1.0000    0.0000 O.2     1  UNL1       -0.4507
      2 O           6.4144    2.0346    0.0000 O.3     1  UNL1       -0.4942
      3 O           2.9176   -2.0346    0.0000 O.3     1  UNL1       -0.4914
      4 O           8.1962   -1.0241    0.0000 O.3     1  UNL1       -0.4949
      5 O           4.6660    2.0000    0.0000 O.2     1  UNL1       -0.2863
      6 C           5.5321    0.5000    0.0000 C.ar    1  UNL1        0.1063
      7 C           3.8000    0.5000    0.0000 C.ar    1  UNL1        0.0684
      8 C           5.5321   -0.5000    0.0000 C.ar    1  UNL1        0.1464
      9 C           3.8000   -0.5000    0.0000 C.ar    1  UNL1        0.1806
     10 C           4.6660    1.0000    0.0000 C.ar    1  UNL1        0.2038
     11 C           6.4260    1.0347    0.0000 C.ar    1  UNL1        0.1379
     12 C           6.4260   -1.0347    0.0000 C.ar    1  UNL1        0.0233
     13 C           2.9061   -1.0347    0.0000 C.ar    1  UNL1        0.1628
     14 C           2.9061    1.0347    0.0000 C.ar    1  UNL1       -0.0471
     15 C           7.3321   -0.5208    0.0000 C.ar    1  UNL1        0.1271
     16 C           7.3321    0.5208    0.0000 C.ar    1  UNL1        0.0227
     17 C           2.0000   -0.5208    0.0000 C.ar    1  UNL1       -0.0162
     18 C           2.0000    0.5208    0.0000 C.ar    1  UNL1       -0.0574
     19 C           7.2746    2.5446    0.0000 C.3     1  UNL1        0.0788
     20 C           2.0574   -2.5446    0.0000 C.3     1  UNL1        0.0790
     21 C           9.0641   -0.5275    0.0000 C.3     1  UNL1        0.0788
     22 H           6.4188   -1.6546    0.0000 H       1  UNL1        0.0691
     23 H           2.9132    1.6546    0.0000 H       1  UNL1        0.0626
     24 H           7.8678    0.8329    0.0000 H       1  UNL1        0.0691
     25 H           1.4643   -0.8329    0.0000 H       1  UNL1        0.0655
     26 H           1.4643    0.8329    0.0000 H       1  UNL1        0.0619
     27 H           7.5908    2.0113    0.0000 H       1  UNL1        0.0660
     28 H           7.8079    2.8608    0.0000 H       1  UNL1        0.0660
     29 H           6.9584    3.0779    0.0000 H       1  UNL1        0.0660
     30 H           1.7413   -2.0113    0.0000 H       1  UNL1        0.0660
     31 H           1.5241   -2.8608    0.0000 H       1  UNL1        0.0660
     32 H           2.3736   -3.0779    0.0000 H       1  UNL1        0.0660
     33 H           9.3720   -1.0656    0.0000 H       1  UNL1        0.0660
     34 H           9.6022   -0.2196    0.0000 H       1  UNL1        0.0660
     35 H           8.7562    0.0106    0.0000 H       1  UNL1        0.0660
@<TRIPOS>BOND
     1     1     8   ar
     2     1     9   ar
     3     2    11    1
     4     2    19    1
     5     3    13    1
     6     3    20    1
     7     4    15    1
     8     4    21    1
     9     5    10    2
    10     6     8   ar
    11     6    10   ar
    12     6    11   ar
    13     7     9   ar
    14     7    10   ar
    15     7    14   ar
    16     8    12   ar
    17     9    13   ar
    18    11    16   ar
    19    12    15   ar
    20    12    22    1
    21    13    17   ar
    22    14    18   ar
    23    14    23    1
    24    15    16   ar
    25    16    24    1
    26    17    18   ar
    27    17    25    1
    28    18    26    1
    29    19    27    1
    30    19    28    1
    31    19    29    1
    32    20    30    1
    33    20    31    1
    34    20    32    1
    35    21    33    1
    36    21    34    1
    37    21    35    1
