@<TRIPOS>MOLECULE
IMPHY013829
 21 21 0 0 0
SMALL
GASTEIGER

@<TRIPOS>ATOM
      1 O           4.5981    1.2500    0.0000 O.3     1  UNL1       -0.4885
      2 O           2.8660    0.2500    0.0000 O.3     1  UNL1       -0.4913
      3 O           6.3301    0.2500    0.0000 O.3     1  UNL1       -0.5032
      4 C           4.5981    0.2500    0.0000 C.ar    1  UNL1        0.2033
      5 C           3.7320   -0.2500    0.0000 C.ar    1  UNL1        0.1652
      6 C           5.4641   -0.2500    0.0000 C.ar    1  UNL1        0.1622
      7 C           3.7320   -1.2500    0.0000 C.ar    1  UNL1       -0.0161
      8 C           5.4641   -1.2500    0.0000 C.ar    1  UNL1       -0.0163
      9 C           4.5981   -1.7500    0.0000 C.ar    1  UNL1       -0.0546
     10 C           5.4641    1.7500    0.0000 C.3     1  UNL1        0.0791
     11 C           2.0000   -0.2500    0.0000 C.3     1  UNL1        0.0790
     12 H           3.1951   -1.5600    0.0000 H       1  UNL1        0.0655
     13 H           6.0010   -1.5600    0.0000 H       1  UNL1        0.0655
     14 H           4.5981   -2.3700    0.0000 H       1  UNL1        0.0620
     15 H           5.7741    1.2131    0.0000 H       1  UNL1        0.0660
     16 H           6.0010    2.0600    0.0000 H       1  UNL1        0.0660
     17 H           5.1541    2.2869    0.0000 H       1  UNL1        0.0660
     18 H           1.6900    0.2869    0.0000 H       1  UNL1        0.0660
     19 H           1.4631   -0.5600    0.0000 H       1  UNL1        0.0660
     20 H           2.3100   -0.7869    0.0000 H       1  UNL1        0.0660
     21 H           6.8671   -0.0600    0.0000 H       1  UNL1        0.2923
@<TRIPOS>BOND
     1     1     4    1
     2     1    10    1
     3     2     5    1
     4     2    11    1
     5     3     6    1
     6     3    21    1
     7     4     5   ar
     8     4     6   ar
     9     5     7   ar
    10     6     8   ar
    11     7     9   ar
    12     7    12    1
    13     8     9   ar
    14     8    13    1
    15     9    14    1
    16    10    15    1
    17    10    16    1
    18    10    17    1
    19    11    18    1
    20    11    19    1
    21    11    20    1
