@<TRIPOS>MOLECULE
IMPHY013677
 76 80 0 0 0
SMALL
GASTEIGER

@<TRIPOS>ATOM
      1 O           2.0000   -3.3545    0.0000 O.2     1  UNL1       -0.2921
      2 O           7.4533    3.6775    0.0000 O.3     1  UNL1       -0.3907
      3 C           6.5271   -1.8022    0.0000 C.3     1  UNL1       -0.0191
      4 C           7.3931   -1.3022    0.0000 C.3     1  UNL1       -0.0051
      5 C           5.6610   -1.3022    0.0000 C.3     1  UNL1       -0.0223
      6 C           4.7510   -1.8090    0.0000 C.3     1  UNL1       -0.0063
      7 C           8.2870    0.2325    0.0000 C.3     1  UNL1       -0.0074
      8 C           9.1931   -0.2814    0.0000 C.3     1  UNL1       -0.0249
      9 C           7.3931   -0.3022    0.0000 C.2     1  UNL1       -0.0629
     10 C           4.7430   -2.8506    0.0000 C.3     1  UNL1       -0.0197
     11 C           6.5431   -2.8437    0.0000 C.3     1  UNL1       -0.0462
     12 C           8.2870   -1.8369    0.0000 C.3     1  UNL1       -0.0429
     13 C           9.1931   -1.3230    0.0000 C.3     1  UNL1       -0.0463
     14 C           5.6610   -0.3022    0.0000 C.3     1  UNL1       -0.0303
     15 C           5.6451   -3.3715    0.0000 C.3     1  UNL1       -0.0480
     16 C           8.4971    1.2464    0.0000 C.3     1  UNL1       -0.0110
     17 C           9.9554    0.4194    0.0000 C.3     1  UNL1       -0.0465
     18 C           7.1698   -2.5682    0.0000 C.3     1  UNL1       -0.0585
     19 C           6.5271    0.1978    0.0000 C.2     1  UNL1       -0.0836
     20 C           7.7352   -2.2419    0.0000 C.3     1  UNL1       -0.0553
     21 C           3.8076   -3.4004    0.0000 C.3     1  UNL1        0.0310
     22 C           9.5262    1.3617    0.0000 C.3     1  UNL1       -0.0454
     23 C           4.7587   -0.8091    0.0000 C.3     1  UNL1       -0.0555
     24 C           3.8242   -1.2450    0.0000 C.2     1  UNL1       -0.0742
     25 C          10.0629   -0.7747    0.0000 C.3     1  UNL1       -0.0590
     26 C           7.8236    1.9855    0.0000 C.2     1  UNL1       -0.0479
     27 C           2.8680   -2.8579    0.0000 C.2     1  UNL1        0.1617
     28 C           2.8763   -1.7729    0.0000 C.2     1  UNL1       -0.0221
     29 C           3.3109   -4.2683    0.0000 C.3     1  UNL1       -0.0525
     30 C           4.3109   -4.2645    0.0000 C.3     1  UNL1       -0.0525
     31 C           8.1269    2.9384    0.0000 C.3     1  UNL1        0.0653
     32 C           6.8467    1.7718    0.0000 C.2     1  UNL1       -0.0970
     33 H           6.1980   -0.9922    0.0000 H       1  UNL1        0.0318
     34 H           7.7817    0.5917    0.0000 H       1  UNL1        0.0357
     35 H           4.7454   -3.4706    0.0000 H       1  UNL1        0.0318
     36 H           6.7612   -3.4241    0.0000 H       1  UNL1        0.0271
     37 H           7.1523   -2.7282    0.0000 H       1  UNL1        0.0271
     38 H           7.8824   -2.3066    0.0000 H       1  UNL1        0.0274
     39 H           8.6806   -2.3159    0.0000 H       1  UNL1        0.0274
     40 H           9.4022   -1.9067    0.0000 H       1  UNL1        0.0271
     41 H           9.8040   -1.2169    0.0000 H       1  UNL1        0.0271
     42 H           5.4490    0.2804    0.0000 H       1  UNL1        0.0311
     43 H           5.0504   -0.4099    0.0000 H       1  UNL1        0.0311
     44 H           5.2478   -3.8474    0.0000 H       1  UNL1        0.0269
     45 H           6.0460   -3.8444    0.0000 H       1  UNL1        0.0269
     46 H           7.8992    1.0826    0.0000 H       1  UNL1        0.0352
     47 H          10.3247   -0.0787    0.0000 H       1  UNL1        0.0271
     48 H          10.4895    0.7343    0.0000 H       1  UNL1        0.0271
     49 H           6.6949   -2.9668    0.0000 H       1  UNL1        0.0235
     50 H           7.5684   -3.0432    0.0000 H       1  UNL1        0.0235
     51 H           7.6448   -2.1697    0.0000 H       1  UNL1        0.0235
     52 H           6.5271    0.8178    0.0000 H       1  UNL1        0.0572
     53 H           7.1526   -2.4540    0.0000 H       1  UNL1        0.0238
     54 H           7.9473   -2.8244    0.0000 H       1  UNL1        0.0238
     55 H           8.3178   -2.0298    0.0000 H       1  UNL1        0.0238
     56 H          10.1143    1.5580    0.0000 H       1  UNL1        0.0271
     57 H           9.3928    1.9671    0.0000 H       1  UNL1        0.0271
     58 H           5.3787   -0.8139    0.0000 H       1  UNL1        0.0238
     59 H           4.7635   -0.1891    0.0000 H       1  UNL1        0.0238
     60 H           4.1388   -0.8043    0.0000 H       1  UNL1        0.0238
     61 H           3.8361   -0.6251    0.0000 H       1  UNL1        0.0579
     62 H           9.7571   -1.3140    0.0000 H       1  UNL1        0.0235
     63 H          10.6023   -1.0805    0.0000 H       1  UNL1        0.0235
     64 H          10.3688   -0.2354    0.0000 H       1  UNL1        0.0235
     65 H           2.3430   -1.4567    0.0000 H       1  UNL1        0.0649
     66 H           2.7728   -3.9604    0.0000 H       1  UNL1        0.0239
     67 H           3.0030   -4.8064    0.0000 H       1  UNL1        0.0239
     68 H           3.8490   -4.5762    0.0000 H       1  UNL1        0.0239
     69 H           3.7752   -4.5765    0.0000 H       1  UNL1        0.0239
     70 H           4.6230   -4.8002    0.0000 H       1  UNL1        0.0239
     71 H           4.8466   -3.9524    0.0000 H       1  UNL1        0.0239
     72 H           8.6760    2.6506    0.0000 H       1  UNL1        0.0604
     73 H           8.5057    3.4292    0.0000 H       1  UNL1        0.0604
     74 H           6.4291    2.2300    0.0000 H       1  UNL1        0.0535
     75 H           6.6586    1.1810    0.0000 H       1  UNL1        0.0535
     76 H           7.6414    4.2683    0.0000 H       1  UNL1        0.2098
@<TRIPOS>BOND
     1     1    27    2
     2     2    31    1
     3     2    76    1
     4     3     4    1
     5     3     5    1
     6     3    11    1
     7     3    18    1
     8     4     9    1
     9     4    12    1
    10     4    20    1
    11     5     6    1
    12     5    14    1
    13     5    33    1
    14     6    10    1
    15     6    23    1
    16     6    24    1
    17     7     8    1
    18     7     9    1
    19     7    16    1
    20     7    34    1
    21     8    13    1
    22     8    17    1
    23     8    25    1
    24     9    19    2
    25    10    15    1
    26    10    21    1
    27    10    35    1
    28    11    15    1
    29    11    36    1
    30    11    37    1
    31    12    13    1
    32    12    38    1
    33    12    39    1
    34    13    40    1
    35    13    41    1
    36    14    19    1
    37    14    42    1
    38    14    43    1
    39    15    44    1
    40    15    45    1
    41    16    22    1
    42    16    26    1
    43    16    46    1
    44    17    22    1
    45    17    47    1
    46    17    48    1
    47    18    49    1
    48    18    50    1
    49    18    51    1
    50    19    52    1
    51    20    53    1
    52    20    54    1
    53    20    55    1
    54    21    27    1
    55    21    29    1
    56    21    30    1
    57    22    56    1
    58    22    57    1
    59    23    58    1
    60    23    59    1
    61    23    60    1
    62    24    28    2
    63    24    61    1
    64    25    62    1
    65    25    63    1
    66    25    64    1
    67    26    31    1
    68    26    32    2
    69    27    28    1
    70    28    65    1
    71    29    66    1
    72    29    67    1
    73    29    68    1
    74    30    69    1
    75    30    70    1
    76    30    71    1
    77    31    72    1
    78    31    73    1
    79    32    74    1
    80    32    75    1
