@<TRIPOS>MOLECULE
IMPHY014080
 37 38 0 0 0
SMALL
GASTEIGER

@<TRIPOS>ATOM
      1 O           4.2690   -4.0000    0.0000 O.3     1  UNL1       -0.4950
      2 O           2.5369   -1.0000    0.0000 O.3     1  UNL1       -0.5059
      3 O           8.5991    3.5000    0.0000 O.3     1  UNL1       -0.4951
      4 O           3.4030    0.5000    0.0000 O.2     1  UNL1       -0.2872
      5 C           4.2690   -1.0000    0.0000 C.ar    1  UNL1        0.0632
      6 C           6.0010    2.0000    0.0000 C.ar    1  UNL1       -0.0247
      7 C           3.4030   -1.5000    0.0000 C.ar    1  UNL1        0.1311
      8 C           5.1350   -1.5000    0.0000 C.ar    1  UNL1       -0.0440
      9 C           4.2690    0.0000    0.0000 C.2     1  UNL1        0.1896
     10 C           4.2690   -3.0000    0.0000 C.ar    1  UNL1        0.1236
     11 C           3.4030   -2.5000    0.0000 C.ar    1  UNL1        0.0222
     12 C           5.1350    1.5000    0.0000 C.2     1  UNL1       -0.0510
     13 C           5.1350   -2.5000    0.0000 C.ar    1  UNL1       -0.0190
     14 C           5.1350    0.5000    0.0000 C.2     1  UNL1       -0.0137
     15 C           6.0010    3.0000    0.0000 C.ar    1  UNL1       -0.0511
     16 C           6.8671    1.5000    0.0000 C.ar    1  UNL1       -0.0511
     17 C           7.7331    3.0000    0.0000 C.ar    1  UNL1        0.1201
     18 C           6.8671    3.5000    0.0000 C.ar    1  UNL1       -0.0194
     19 C           7.7331    2.0000    0.0000 C.ar    1  UNL1       -0.0194
     20 C           5.1350   -4.5000    0.0000 C.3     1  UNL1        0.0788
     21 C           8.5991    4.5000    0.0000 C.3     1  UNL1        0.0788
     22 H           5.6720   -1.1900    0.0000 H       1  UNL1        0.0627
     23 H           2.8660   -2.8100    0.0000 H       1  UNL1        0.0691
     24 H           4.5981    1.8100    0.0000 H       1  UNL1        0.0625
     25 H           5.6720   -2.8100    0.0000 H       1  UNL1        0.0654
     26 H           5.6720    0.1900    0.0000 H       1  UNL1        0.0656
     27 H           5.4641    3.3100    0.0000 H       1  UNL1        0.0625
     28 H           6.8671    0.8800    0.0000 H       1  UNL1        0.0625
     29 H           6.8671    4.1200    0.0000 H       1  UNL1        0.0654
     30 H           8.2700    1.6900    0.0000 H       1  UNL1        0.0654
     31 H           2.0000   -1.3100    0.0000 H       1  UNL1        0.2922
     32 H           4.8250   -5.0369    0.0000 H       1  UNL1        0.0660
     33 H           5.6720   -4.8100    0.0000 H       1  UNL1        0.0660
     34 H           5.4450   -3.9631    0.0000 H       1  UNL1        0.0660
     35 H           9.2191    4.5000    0.0000 H       1  UNL1        0.0660
     36 H           8.5991    5.1200    0.0000 H       1  UNL1        0.0660
     37 H           7.9791    4.5000    0.0000 H       1  UNL1        0.0660
@<TRIPOS>BOND
     1     1    10    1
     2     1    20    1
     3     2     7    1
     4     2    31    1
     5     3    17    1
     6     3    21    1
     7     4     9    2
     8     5     7   ar
     9     5     8   ar
    10     5     9    1
    11     6    12    1
    12     6    15   ar
    13     6    16   ar
    14     7    11   ar
    15     8    13   ar
    16     8    22    1
    17     9    14    1
    18    10    11   ar
    19    10    13   ar
    20    11    23    1
    21    12    14    2
    22    12    24    1
    23    13    25    1
    24    14    26    1
    25    15    18   ar
    26    15    27    1
    27    16    19   ar
    28    16    28    1
    29    17    18   ar
    30    17    19   ar
    31    18    29    1
    32    19    30    1
    33    20    32    1
    34    20    33    1
    35    20    34    1
    36    21    35    1
    37    21    36    1
    38    21    37    1
