@<TRIPOS>MOLECULE
IMPHY009826
 133 132 0 0 0
SMALL
GASTEIGER

@<TRIPOS>ATOM
      1 P           6.0010   -2.8100    0.0000 P.3     1  UNL1        0.2128
      2 O           9.4651   -0.8100    0.0000 O.3     1  UNL1       -0.4608
      3 O           9.4651   -2.8100    0.0000 O.3     1  UNL1       -0.4555
      4 O           8.5991    0.6900    0.0000 O.2     1  UNL1       -0.2509
      5 O           6.8671   -2.3100    0.0000 O.3     1  UNL1       -0.3236
      6 O          10.3312   -1.3100    0.0000 O.2     1  UNL1       -0.2508
      7 O           5.1350   -3.3100    0.0000 O.3     1  UNL1       -0.3221
      8 O           5.5010   -1.9440    0.0000 O.co2   1  UNL1       -0.4373
      9 O           6.5010   -3.6760    0.0000 O.2     1  UNL1       -0.5172
     10 N           2.5369   -2.8100    0.0000 N.4     1  UNL1        0.2202
     11 C          12.0632    3.6900    0.0000 C.3     1  UNL1       -0.0531
     12 C          12.0632    4.6900    0.0000 C.3     1  UNL1       -0.0530
     13 C          11.1972    3.1900    0.0000 C.3     1  UNL1       -0.0530
     14 C          12.9292    5.1900    0.0000 C.3     1  UNL1       -0.0528
     15 C          11.1972    2.1900    0.0000 C.3     1  UNL1       -0.0526
     16 C          12.9292    6.1900    0.0000 C.3     1  UNL1       -0.0496
     17 C          10.3312    1.6900    0.0000 C.3     1  UNL1       -0.0430
     18 C          13.7953    6.6900    0.0000 C.3     1  UNL1       -0.0348
     19 C          17.2594    7.6900    0.0000 C.3     1  UNL1       -0.0528
     20 C          18.1254    8.1900    0.0000 C.3     1  UNL1       -0.0530
     21 C          16.3933    8.1900    0.0000 C.3     1  UNL1       -0.0496
     22 C          18.9914    7.6900    0.0000 C.3     1  UNL1       -0.0531
     23 C          15.5273    7.6900    0.0000 C.3     1  UNL1       -0.0348
     24 C          10.3312    0.6900    0.0000 C.3     1  UNL1        0.0449
     25 C          13.7953   -2.3100    0.0000 C.3     1  UNL1       -0.0530
     26 C          19.8574    8.1900    0.0000 C.3     1  UNL1       -0.0533
     27 C          12.9292   -2.8100    0.0000 C.3     1  UNL1       -0.0526
     28 C          14.6613   -2.8100    0.0000 C.3     1  UNL1       -0.0528
     29 C          13.7953    7.6900    0.0000 C.2     1  UNL1       -0.0879
     30 C          12.0632   -2.3100    0.0000 C.3     1  UNL1       -0.0430
     31 C          14.6613    8.1900    0.0000 C.2     1  UNL1       -0.0879
     32 C          15.5273   -2.3100    0.0000 C.3     1  UNL1       -0.0496
     33 C          20.7235    7.6900    0.0000 C.3     1  UNL1       -0.0559
     34 C          11.1972   -2.8100    0.0000 C.3     1  UNL1        0.0450
     35 C           9.4651    0.1900    0.0000 C.2     1  UNL1        0.3072
     36 C          16.3933   -2.8100    0.0000 C.3     1  UNL1       -0.0348
     37 C           8.5991   -2.3100    0.0000 C.3     1  UNL1        0.1604
     38 C           8.5991   -1.3100    0.0000 C.3     1  UNL1        0.1315
     39 C          21.5895    8.1900    0.0000 C.3     1  UNL1       -0.0653
     40 C          10.3312   -2.3100    0.0000 C.2     1  UNL1        0.3075
     41 C           7.7331   -2.8100    0.0000 C.3     1  UNL1        0.0951
     42 C          17.2594   -2.3100    0.0000 C.2     1  UNL1       -0.0876
     43 C          18.1254   -2.8100    0.0000 C.2     1  UNL1       -0.0842
     44 C          18.1254   -3.8100    0.0000 C.3     1  UNL1       -0.0165
     45 C          18.1254   -6.8100    0.0000 C.3     1  UNL1       -0.0496
     46 C          18.1254   -5.8100    0.0000 C.3     1  UNL1       -0.0348
     47 C          17.2594   -7.3100    0.0000 C.3     1  UNL1       -0.0530
     48 C          18.9914   -4.3100    0.0000 C.2     1  UNL1       -0.0842
     49 C          18.9914   -5.3100    0.0000 C.2     1  UNL1       -0.0876
     50 C          17.2594   -8.3100    0.0000 C.3     1  UNL1       -0.0559
     51 C          16.3933   -8.8100    0.0000 C.3     1  UNL1       -0.0653
     52 C           4.2690   -2.8100    0.0000 C.3     1  UNL1        0.0945
     53 C           3.4030   -3.3100    0.0000 C.3     1  UNL1       -0.0110
     54 H          12.2753    3.1074    0.0000 H       1  UNL1        0.0265
     55 H          12.6738    3.7977    0.0000 H       1  UNL1        0.0265
     56 H          11.8512    5.2726    0.0000 H       1  UNL1        0.0265
     57 H          11.4526    4.5823    0.0000 H       1  UNL1        0.0265
     58 H          10.9851    3.7726    0.0000 H       1  UNL1        0.0265
     59 H          10.5866    3.0823    0.0000 H       1  UNL1        0.0265
     60 H          13.1413    4.6074    0.0000 H       1  UNL1        0.0265
     61 H          13.5398    5.2977    0.0000 H       1  UNL1        0.0265
     62 H          11.4092    1.6074    0.0000 H       1  UNL1        0.0265
     63 H          11.8078    2.2977    0.0000 H       1  UNL1        0.0265
     64 H          12.7172    6.7726    0.0000 H       1  UNL1        0.0268
     65 H          12.3187    6.0823    0.0000 H       1  UNL1        0.0268
     66 H          10.1191    2.2726    0.0000 H       1  UNL1        0.0270
     67 H           9.7206    1.5823    0.0000 H       1  UNL1        0.0270
     68 H          14.0073    6.1074    0.0000 H       1  UNL1        0.0307
     69 H          14.4058    6.7977    0.0000 H       1  UNL1        0.0307
     70 H          16.8608    7.2150    0.0000 H       1  UNL1        0.0265
     71 H          17.6579    7.2150    0.0000 H       1  UNL1        0.0265
     72 H          18.5239    8.6649    0.0000 H       1  UNL1        0.0265
     73 H          17.7269    8.6649    0.0000 H       1  UNL1        0.0265
     74 H          16.7919    8.6649    0.0000 H       1  UNL1        0.0268
     75 H          15.9948    8.6649    0.0000 H       1  UNL1        0.0268
     76 H          18.5929    7.2150    0.0000 H       1  UNL1        0.0265
     77 H          19.3899    7.2150    0.0000 H       1  UNL1        0.0265
     78 H          15.1288    7.2150    0.0000 H       1  UNL1        0.0307
     79 H          15.9258    7.2150    0.0000 H       1  UNL1        0.0307
     80 H          10.5432    0.1074    0.0000 H       1  UNL1        0.0377
     81 H          10.9417    0.7977    0.0000 H       1  UNL1        0.0377
     82 H          14.1938   -1.8350    0.0000 H       1  UNL1        0.0265
     83 H          13.3967   -1.8350    0.0000 H       1  UNL1        0.0265
     84 H          20.2560    8.6649    0.0000 H       1  UNL1        0.0265
     85 H          19.4589    8.6649    0.0000 H       1  UNL1        0.0265
     86 H          12.5307   -3.2850    0.0000 H       1  UNL1        0.0265
     87 H          13.3278   -3.2850    0.0000 H       1  UNL1        0.0265
     88 H          14.2628   -3.2850    0.0000 H       1  UNL1        0.0265
     89 H          15.0598   -3.2850    0.0000 H       1  UNL1        0.0265
     90 H          13.2583    8.0000    0.0000 H       1  UNL1        0.0569
     91 H          12.4617   -1.8350    0.0000 H       1  UNL1        0.0270
     92 H          11.6647   -1.8350    0.0000 H       1  UNL1        0.0270
     93 H          14.6613    8.8100    0.0000 H       1  UNL1        0.0569
     94 H          15.9258   -1.8350    0.0000 H       1  UNL1        0.0268
     95 H          15.1288   -1.8350    0.0000 H       1  UNL1        0.0268
     96 H          20.3249    7.2150    0.0000 H       1  UNL1        0.0263
     97 H          21.1220    7.2150    0.0000 H       1  UNL1        0.0263
     98 H          10.7987   -3.2850    0.0000 H       1  UNL1        0.0377
     99 H          11.5957   -3.2850    0.0000 H       1  UNL1        0.0377
    100 H          15.9948   -3.2850    0.0000 H       1  UNL1        0.0307
    101 H          16.7919   -3.2850    0.0000 H       1  UNL1        0.0307
    102 H           8.5991   -2.9300    0.0000 H       1  UNL1        0.0792
    103 H           8.3871   -0.7274    0.0000 H       1  UNL1        0.0736
    104 H           7.9885   -1.4177    0.0000 H       1  UNL1        0.0736
    105 H          21.8995    7.6531    0.0000 H       1  UNL1        0.0230
    106 H          22.1264    8.5000    0.0000 H       1  UNL1        0.0230
    107 H          21.2795    8.7269    0.0000 H       1  UNL1        0.0230
    108 H           7.3346   -3.2850    0.0000 H       1  UNL1        0.0602
    109 H           8.1316   -3.2850    0.0000 H       1  UNL1        0.0602
    110 H          17.2594   -1.6900    0.0000 H       1  UNL1        0.0569
    111 H          18.6623   -2.5000    0.0000 H       1  UNL1        0.0572
    112 H          17.5148   -3.7023    0.0000 H       1  UNL1        0.0350
    113 H          17.9133   -4.3926    0.0000 H       1  UNL1        0.0350
    114 H          18.3374   -7.3926    0.0000 H       1  UNL1        0.0268
    115 H          18.7360   -6.7023    0.0000 H       1  UNL1        0.0268
    116 H          17.9133   -5.2274    0.0000 H       1  UNL1        0.0307
    117 H          17.5148   -5.9177    0.0000 H       1  UNL1        0.0307
    118 H          17.0473   -6.7274    0.0000 H       1  UNL1        0.0265
    119 H          16.6488   -7.4177    0.0000 H       1  UNL1        0.0265
    120 H          19.5284   -4.0000    0.0000 H       1  UNL1        0.0572
    121 H          19.5284   -5.6200    0.0000 H       1  UNL1        0.0569
    122 H          17.4714   -8.8926    0.0000 H       1  UNL1        0.0263
    123 H          17.8699   -8.2023    0.0000 H       1  UNL1        0.0263
    124 H          16.0833   -8.2731    0.0000 H       1  UNL1        0.0230
    125 H          15.8564   -9.1200    0.0000 H       1  UNL1        0.0230
    126 H          16.7033   -9.3469    0.0000 H       1  UNL1        0.0230
    127 H           4.6675   -2.3350    0.0000 H       1  UNL1        0.0618
    128 H           3.8705   -2.3350    0.0000 H       1  UNL1        0.0618
    129 H           3.0044   -3.7850    0.0000 H       1  UNL1        0.0836
    130 H           3.8015   -3.7850    0.0000 H       1  UNL1        0.0836
    131 H           2.0000   -2.5000    0.0000 H       1  UNL1        0.1995
    132 H           2.2269   -3.3469    0.0000 H       1  UNL1        0.1995
    133 H           2.8469   -2.2731    0.0000 H       1  UNL1        0.1995
@<TRIPOS>UNITY_ATOM_ATTR
8 1
charge -1
10 1
charge 1
@<TRIPOS>BOND
     1     1     5    1
     2     1     7    1
     3     1     8    1
     4     1     9    2
     5     2    35    1
     6     2    38    1
     7    37     3    1
     8     3    40    1
     9     4    35    2
    10     5    41    1
    11     6    40    2
    12     7    52    1
    13    10    53    1
    14    10   131    1
    15    10   132    1
    16    10   133    1
    17    11    12    1
    18    11    13    1
    19    11    54    1
    20    11    55    1
    21    12    14    1
    22    12    56    1
    23    12    57    1
    24    13    15    1
    25    13    58    1
    26    13    59    1
    27    14    16    1
    28    14    60    1
    29    14    61    1
    30    15    17    1
    31    15    62    1
    32    15    63    1
    33    16    18    1
    34    16    64    1
    35    16    65    1
    36    17    24    1
    37    17    66    1
    38    17    67    1
    39    18    29    1
    40    18    68    1
    41    18    69    1
    42    19    20    1
    43    19    21    1
    44    19    70    1
    45    19    71    1
    46    20    22    1
    47    20    72    1
    48    20    73    1
    49    21    23    1
    50    21    74    1
    51    21    75    1
    52    22    26    1
    53    22    76    1
    54    22    77    1
    55    23    31    1
    56    23    78    1
    57    23    79    1
    58    24    35    1
    59    24    80    1
    60    24    81    1
    61    25    27    1
    62    25    28    1
    63    25    82    1
    64    25    83    1
    65    26    33    1
    66    26    84    1
    67    26    85    1
    68    27    30    1
    69    27    86    1
    70    27    87    1
    71    28    32    1
    72    28    88    1
    73    28    89    1
    74    29    31    2
    75    29    90    1
    76    30    34    1
    77    30    91    1
    78    30    92    1
    79    31    93    1
    80    32    36    1
    81    32    94    1
    82    32    95    1
    83    33    39    1
    84    33    96    1
    85    33    97    1
    86    34    40    1
    87    34    98    1
    88    34    99    1
    89    36    42    1
    90    36   100    1
    91    36   101    1
    92    37    38    1
    93    37    41    1
    94    37   102    1
    95    38   103    1
    96    38   104    1
    97    39   105    1
    98    39   106    1
    99    39   107    1
   100    41   108    1
   101    41   109    1
   102    42    43    2
   103    42   110    1
   104    43    44    1
   105    43   111    1
   106    44    48    1
   107    44   112    1
   108    44   113    1
   109    45    46    1
   110    45    47    1
   111    45   114    1
   112    45   115    1
   113    46    49    1
   114    46   116    1
   115    46   117    1
   116    47    50    1
   117    47   118    1
   118    47   119    1
   119    48    49    2
   120    48   120    1
   121    49   121    1
   122    50    51    1
   123    50   122    1
   124    50   123    1
   125    51   124    1
   126    51   125    1
   127    51   126    1
   128    52    53    1
   129    52   127    1
   130    52   128    1
   131    53   129    1
   132    53   130    1
