@<TRIPOS>MOLECULE
IMPHY005441
 29 26 0 0 0
SMALL
GASTEIGER

@<TRIPOS>ATOM
      1 CA          7.7331    0.4050    0.0000 Ca      1  UNL1        0.0000
      2 O           5.1350   -1.0950    0.0000 O.3     2  UNL2        0.0000
      3 O          10.3312   -1.0950    0.0000 O.3     3  UNL3        0.0000
      4 O          12.9292    0.4050    0.0000 O.3     3  UNL3        0.0000
      5 O           2.5369    0.4050    0.0000 O.3     2  UNL2        0.0000
      6 O          12.0632   -1.0950    0.0000 O.2     3  UNL3        0.0000
      7 O           3.4030   -1.0950    0.0000 O.2     2  UNL2        0.0000
      8 O           8.5991   -0.0950    0.0000 O.co2   3  UNL3       -0.5000
      9 O           6.8671   -0.0950    0.0000 O.co2   2  UNL2       -0.5000
     10 O           9.4651    1.4050    0.0000 O.co2   3  UNL3       -0.5000
     11 O           6.0010    1.4050    0.0000 O.co2   2  UNL2       -0.5000
     12 C           5.1350   -0.0950    0.0000 C.3     2  UNL2        0.0000
     13 C          10.3312   -0.0950    0.0000 C.3     3  UNL3        0.0000
     14 C          11.1972    0.4050    0.0000 C.3     3  UNL3        0.0000
     15 C           4.2690    0.4050    0.0000 C.3     2  UNL2        0.0000
     16 C          12.0632   -0.0950    0.0000 C.2     3  UNL3        0.0000
     17 C           3.4030   -0.0950    0.0000 C.2     2  UNL2        0.0000
     18 C           9.4651    0.4050    0.0000 C.2     3  UNL3        0.0000
     19 C           6.0010    0.4050    0.0000 C.2     2  UNL2        0.0000
     20 H           5.6720   -0.4050    0.0000 H       2  UNL2        0.0000
     21 H          10.8681   -0.4050    0.0000 H       3  UNL3        0.0000
     22 H           4.6675    0.8799    0.0000 H       2  UNL2        0.0000
     23 H           3.8705    0.8799    0.0000 H       2  UNL2        0.0000
     24 H          11.5957    0.8799    0.0000 H       3  UNL3        0.0000
     25 H          10.7987    0.8799    0.0000 H       3  UNL3        0.0000
     26 H           4.5981   -1.4050    0.0000 H       2  UNL2        0.0000
     27 H          10.8681   -1.4050    0.0000 H       3  UNL3        0.0000
     28 H          13.4662    0.0950    0.0000 H       3  UNL3        0.0000
     29 H           2.0000    0.0950    0.0000 H       2  UNL2        0.0000
@<TRIPOS>UNITY_ATOM_ATTR
1 1
charge 2
8 1
charge -1
9 1
charge -1
@<TRIPOS>BOND
     1     2    12    1
     2     2    26    1
     3     3    13    1
     4     3    27    1
     5     4    16    1
     6     4    28    1
     7     5    17    1
     8     5    29    1
     9     6    16    2
    10     7    17    2
    11     8    18   ar
    12     9    19   ar
    13    10    18   ar
    14    11    19   ar
    15    12    15    1
    16    12    19    1
    17    12    20    1
    18    13    14    1
    19    13    18    1
    20    13    21    1
    21    14    16    1
    22    14    24    1
    23    14    25    1
    24    15    17    1
    25    15    22    1
    26    15    23    1
