@<TRIPOS>MOLECULE
IMPHY013457
 137 145 0 0 0
SMALL
GASTEIGER

@<TRIPOS>ATOM
      1 O          12.2620    4.2310    0.0000 O.3     1  UNL1       -0.3719
      2 O          12.3661    6.6278    0.0000 O.3     1  UNL1       -0.3911
      3 O           6.8671    0.3742    0.0000 O.3     1  UNL1       -0.3449
      4 O          16.5418    4.9834    0.0000 O.2     1  UNL1       -0.3005
      5 O           7.7331   -1.1258    0.0000 O.3     1  UNL1       -0.3461
      6 O           5.1350   -0.6258    0.0000 O.3     1  UNL1       -0.3841
      7 O           5.1350   -2.6258    0.0000 O.3     1  UNL1       -0.3864
      8 O           6.8671   -3.6258    0.0000 O.3     1  UNL1       -0.3405
      9 O           5.1350   -3.6258    0.0000 O.3     1  UNL1       -0.3405
     10 O           6.8671   -5.6258    0.0000 O.3     1  UNL1       -0.3378
     11 O           5.1350   -6.6258    0.0000 O.3     1  UNL1       -0.3864
     12 O           3.4030   -5.6258    0.0000 O.3     1  UNL1       -0.3865
     13 O           7.7331   -4.1258    0.0000 O.3     1  UNL1       -0.3461
     14 O           2.5369   -4.1258    0.0000 O.3     1  UNL1       -0.3924
     15 O           8.5991   -6.6258    0.0000 O.3     1  UNL1       -0.3841
     16 O          10.3312   -5.6258    0.0000 O.3     1  UNL1       -0.3864
     17 O          10.3312   -3.6258    0.0000 O.3     1  UNL1       -0.3869
     18 C          11.5097    4.1245    0.0000 C.3     1  UNL1        0.0053
     19 C          12.3777    3.6279    0.0000 C.3     1  UNL1        0.0790
     20 C          10.6017    3.6142    0.0000 C.3     1  UNL1       -0.0206
     21 C          13.2418    4.1312    0.0000 C.3     1  UNL1       -0.0004
     22 C          10.5977    2.5726    0.0000 C.3     1  UNL1       -0.0293
     23 C          13.2379    5.1312    0.0000 C.3     1  UNL1        0.0256
     24 C           9.6644    2.0192    0.0000 C.3     1  UNL1       -0.0252
     25 C          11.5059    5.1245    0.0000 C.3     1  UNL1       -0.0177
     26 C          12.3978    2.5864    0.0000 C.3     1  UNL1       -0.0226
     27 C          12.3700    5.6279    0.0000 C.3     1  UNL1        0.0639
     28 C          11.5018    2.0552    0.0000 C.3     1  UNL1       -0.0466
     29 C           8.7227    2.5581    0.0000 C.3     1  UNL1       -0.0278
     30 C           9.6727    4.1747    0.0000 C.3     1  UNL1       -0.0465
     31 C          12.6593    4.9254    0.0000 C.3     1  UNL1        0.0567
     32 C          14.1378    3.6000    0.0000 C.3     1  UNL1       -0.0350
     33 C          14.1298    5.6693    0.0000 C.3     1  UNL1       -0.0417
     34 C           8.7268    3.6431    0.0000 C.3     1  UNL1       -0.0486
     35 C          10.8640    4.8881    0.0000 C.3     1  UNL1       -0.0563
     36 C          10.2633    4.5552    0.0000 C.3     1  UNL1       -0.0587
     37 C           7.7374    2.0044    0.0000 C.3     1  UNL1       -0.0052
     38 C           9.6862    0.8893    0.0000 C.3     1  UNL1       -0.0447
     39 C          15.0418    4.1173    0.0000 C.3     1  UNL1        0.0236
     40 C          15.0378    5.1590    0.0000 C.3     1  UNL1       -0.0405
     41 C          10.5323    1.5226    0.0000 C.3     1  UNL1       -0.0590
     42 C           7.7331    0.8742    0.0000 C.3     1  UNL1        0.0672
     43 C           8.7140    0.3129    0.0000 C.3     1  UNL1       -0.0255
     44 C           7.2441    2.8742    0.0000 C.3     1  UNL1       -0.0572
     45 C           6.7375    2.0121    0.0000 C.3     1  UNL1       -0.0572
     46 C          15.5418    3.2513    0.0000 C.3     1  UNL1       -0.0531
     47 C          16.0418    4.1173    0.0000 C.2     1  UNL1        0.1262
     48 C           6.8671   -0.6258    0.0000 C.3     1  UNL1        0.1878
     49 C           6.0010   -1.1258    0.0000 C.3     1  UNL1        0.1341
     50 C           6.0010   -2.1258    0.0000 C.3     1  UNL1        0.1141
     51 C           7.7331   -2.1258    0.0000 C.3     1  UNL1        0.0796
     52 C           6.8671   -2.6258    0.0000 C.3     1  UNL1        0.1134
     53 C           6.0010   -4.1258    0.0000 C.3     1  UNL1        0.1888
     54 C           6.0010   -5.1258    0.0000 C.3     1  UNL1        0.1406
     55 C           5.1350   -5.6258    0.0000 C.3     1  UNL1        0.1144
     56 C           4.2690   -4.1258    0.0000 C.3     1  UNL1        0.1130
     57 C           4.2690   -5.1258    0.0000 C.3     1  UNL1        0.1119
     58 C           3.4030   -3.6258    0.0000 C.3     1  UNL1        0.0730
     59 C           7.7331   -5.1258    0.0000 C.3     1  UNL1        0.1881
     60 C           8.5991   -5.6258    0.0000 C.3     1  UNL1        0.1341
     61 C           9.4651   -5.1258    0.0000 C.3     1  UNL1        0.1137
     62 C           8.5991   -3.6258    0.0000 C.3     1  UNL1        0.0792
     63 C           9.4651   -4.1258    0.0000 C.3     1  UNL1        0.1069
     64 H          13.2450    3.2812    0.0000 H       1  UNL1        0.0336
     65 H          10.6042    1.7226    0.0000 H       1  UNL1        0.0312
     66 H          11.2916    5.7063    0.0000 H       1  UNL1        0.0297
     67 H          10.8957    5.0145    0.0000 H       1  UNL1        0.0297
     68 H          12.6180    2.0069    0.0000 H       1  UNL1        0.0293
     69 H          13.0065    2.7043    0.0000 H       1  UNL1        0.0293
     70 H          12.9057    5.9399    0.0000 H       1  UNL1        0.0600
     71 H          11.1063    1.5777    0.0000 H       1  UNL1        0.0269
     72 H          11.9045    1.5839    0.0000 H       1  UNL1        0.0269
     73 H           7.9898    2.9888    0.0000 H       1  UNL1        0.0312
     74 H          10.0791    4.6429    0.0000 H       1  UNL1        0.0271
     75 H           9.2809    4.6552    0.0000 H       1  UNL1        0.0271
     76 H          12.6255    5.5445    0.0000 H       1  UNL1        0.0566
     77 H          12.0560    5.0683    0.0000 H       1  UNL1        0.0566
     78 H          13.7350    3.1286    0.0000 H       1  UNL1        0.0278
     79 H          14.5332    3.1225    0.0000 H       1  UNL1        0.0278
     80 H          14.5216    6.1498    0.0000 H       1  UNL1        0.0272
     81 H          13.7234    6.1375    0.0000 H       1  UNL1        0.0272
     82 H           8.5200    4.2276    0.0000 H       1  UNL1        0.0268
     83 H           8.1156    3.5394    0.0000 H       1  UNL1        0.0268
     84 H          11.3374    5.2884    0.0000 H       1  UNL1        0.0236
     85 H          10.4636    5.3615    0.0000 H       1  UNL1        0.0236
     86 H          10.3906    4.4877    0.0000 H       1  UNL1        0.0236
     87 H          10.8467    4.7650    0.0000 H       1  UNL1        0.0235
     88 H          10.0535    5.1386    0.0000 H       1  UNL1        0.0235
     89 H           9.6799    4.3454    0.0000 H       1  UNL1        0.0235
     90 H           9.9064    0.3097    0.0000 H       1  UNL1        0.0271
     91 H          10.2949    1.0071    0.0000 H       1  UNL1        0.0271
     92 H          15.6491    5.0552    0.0000 H       1  UNL1        0.0275
     93 H          15.2446    5.7434    0.0000 H       1  UNL1        0.0275
     94 H          10.2244    0.9844    0.0000 H       1  UNL1        0.0235
     95 H          11.0705    1.2146    0.0000 H       1  UNL1        0.0235
     96 H          10.8403    2.0607    0.0000 H       1  UNL1        0.0235
     97 H           7.1968    1.1853    0.0000 H       1  UNL1        0.0602
     98 H           8.3185   -0.1646    0.0000 H       1  UNL1        0.0290
     99 H           9.1168   -0.1584    0.0000 H       1  UNL1        0.0290
    100 H          11.8280    6.9358    0.0000 H       1  UNL1        0.2098
    101 H           7.7834    3.1801    0.0000 H       1  UNL1        0.0236
    102 H           6.9383    3.4135    0.0000 H       1  UNL1        0.0236
    103 H           6.7048    2.5684    0.0000 H       1  UNL1        0.0236
    104 H           6.7422    2.6321    0.0000 H       1  UNL1        0.0236
    105 H           6.1175    2.0169    0.0000 H       1  UNL1        0.0236
    106 H           6.7327    1.3921    0.0000 H       1  UNL1        0.0236
    107 H          15.0049    2.9413    0.0000 H       1  UNL1        0.0239
    108 H          15.8518    2.7144    0.0000 H       1  UNL1        0.0239
    109 H          16.0788    3.5613    0.0000 H       1  UNL1        0.0239
    110 H          16.3518    3.5804    0.0000 H       1  UNL1        0.1032
    111 H           6.3301   -0.3158    0.0000 H       1  UNL1        0.0937
    112 H           6.0010   -0.5058    0.0000 H       1  UNL1        0.0671
    113 H           6.0010   -2.7458    0.0000 H       1  UNL1        0.0648
    114 H           7.9451   -2.7084    0.0000 H       1  UNL1        0.0587
    115 H           8.3437   -2.0181    0.0000 H       1  UNL1        0.0587
    116 H           7.4040   -2.9358    0.0000 H       1  UNL1        0.0647
    117 H           5.1350   -0.0058    0.0000 H       1  UNL1        0.2101
    118 H           4.5981   -2.3158    0.0000 H       1  UNL1        0.2100
    119 H           6.0010   -3.5058    0.0000 H       1  UNL1        0.0938
    120 H           6.0010   -5.7458    0.0000 H       1  UNL1        0.0675
    121 H           4.5981   -5.9358    0.0000 H       1  UNL1        0.0648
    122 H           4.2690   -3.5058    0.0000 H       1  UNL1        0.0647
    123 H           4.2690   -5.7458    0.0000 H       1  UNL1        0.0647
    124 H           3.8015   -3.1508    0.0000 H       1  UNL1        0.0584
    125 H           3.0044   -3.1508    0.0000 H       1  UNL1        0.0584
    126 H           7.1962   -4.8158    0.0000 H       1  UNL1        0.0937
    127 H           4.5981   -6.9358    0.0000 H       1  UNL1        0.2100
    128 H           3.4030   -6.2458    0.0000 H       1  UNL1        0.2100
    129 H           8.0622   -5.9358    0.0000 H       1  UNL1        0.0671
    130 H           2.0000   -3.8158    0.0000 H       1  UNL1        0.2095
    131 H          10.0021   -4.8158    0.0000 H       1  UNL1        0.0647
    132 H           8.9976   -3.1508    0.0000 H       1  UNL1        0.0587
    133 H           8.2006   -3.1508    0.0000 H       1  UNL1        0.0587
    134 H           9.4651   -3.5058    0.0000 H       1  UNL1        0.0643
    135 H           8.0622   -6.9358    0.0000 H       1  UNL1        0.2101
    136 H          10.8681   -5.3158    0.0000 H       1  UNL1        0.2100
    137 H          10.3312   -3.0058    0.0000 H       1  UNL1        0.2100
@<TRIPOS>BOND
     1     1    19    1
     2     1    31    1
     3    27     2    1
     4     2   100    1
     5    42     3    1
     6    48     3    1
     7     4    47    2
     8     5    48    1
     9     5    51    1
    10    49     6    1
    11     6   117    1
    12    50     7    1
    13     7   118    1
    14    52     8    1
    15    53     8    1
    16     9    53    1
    17     9    56    1
    18    54    10    1
    19    59    10    1
    20    55    11    1
    21    11   127    1
    22    57    12    1
    23    12   128    1
    24    13    59    1
    25    13    62    1
    26    14    58    1
    27    14   130    1
    28    60    15    1
    29    15   135    1
    30    61    16    1
    31    16   136    1
    32    63    17    1
    33    17   137    1
    34    18    19    1
    35    18    20    1
    36    18    25    1
    37    18    35    1
    38    19    21    1
    39    19    26    1
    40    20    22    1
    41    20    30    1
    42    20    36    1
    43    21    23    1
    44    21    32    1
    45    21    64    1
    46    22    24    1
    47    22    28    1
    48    22    65    1
    49    23    27    1
    50    23    31    1
    51    23    33    1
    52    24    29    1
    53    24    38    1
    54    24    41    1
    55    25    27    1
    56    25    66    1
    57    25    67    1
    58    26    28    1
    59    26    68    1
    60    26    69    1
    61    27    70    1
    62    28    71    1
    63    28    72    1
    64    29    34    1
    65    29    37    1
    66    29    73    1
    67    30    34    1
    68    30    74    1
    69    30    75    1
    70    31    76    1
    71    31    77    1
    72    32    39    1
    73    32    78    1
    74    32    79    1
    75    33    40    1
    76    33    80    1
    77    33    81    1
    78    34    82    1
    79    34    83    1
    80    35    84    1
    81    35    85    1
    82    35    86    1
    83    36    87    1
    84    36    88    1
    85    36    89    1
    86    37    42    1
    87    37    44    1
    88    37    45    1
    89    38    43    1
    90    38    90    1
    91    38    91    1
    92    39    40    1
    93    39    46    1
    94    39    47    1
    95    40    92    1
    96    40    93    1
    97    41    94    1
    98    41    95    1
    99    41    96    1
   100    42    43    1
   101    42    97    1
   102    43    98    1
   103    43    99    1
   104    44   101    1
   105    44   102    1
   106    44   103    1
   107    45   104    1
   108    45   105    1
   109    45   106    1
   110    46   107    1
   111    46   108    1
   112    46   109    1
   113    47   110    1
   114    48    49    1
   115    48   111    1
   116    49    50    1
   117    49   112    1
   118    50    52    1
   119    50   113    1
   120    51    52    1
   121    51   114    1
   122    51   115    1
   123    52   116    1
   124    53    54    1
   125    53   119    1
   126    54    55    1
   127    54   120    1
   128    55    57    1
   129    55   121    1
   130    56    57    1
   131    56    58    1
   132    56   122    1
   133    57   123    1
   134    58   124    1
   135    58   125    1
   136    59    60    1
   137    59   126    1
   138    60    61    1
   139    60   129    1
   140    61    63    1
   141    61   131    1
   142    62    63    1
   143    62   132    1
   144    62   133    1
   145    63   134    1
