@<TRIPOS>MOLECULE
IMPHY012785
 52 55 0 0 0
SMALL
GASTEIGER

@<TRIPOS>ATOM
      1 O           5.1350   -0.1945    0.0000 O.3     1  UNL1       -0.3313
      2 O           6.8671   -0.1945    0.0000 O.3     1  UNL1       -0.4599
      3 O           5.1350   -3.1945    0.0000 O.3     1  UNL1       -0.3864
      4 O           3.4030   -2.1945    0.0000 O.3     1  UNL1       -0.3865
      5 O           6.8671   -2.1945    0.0000 O.3     1  UNL1       -0.3829
      6 O           2.5369   -0.6945    0.0000 O.3     1  UNL1       -0.3924
      7 O           8.6504    2.8196    0.0000 O.2     1  UNL1       -0.4543
      8 O           8.6158   -0.1802    0.0000 O.2     1  UNL1       -0.2863
      9 O           5.1208    2.8846    0.0000 O.3     1  UNL1       -0.5065
     10 C           5.1350   -2.1945    0.0000 C.3     1  UNL1        0.1152
     11 C           4.2690   -1.6945    0.0000 C.3     1  UNL1        0.1120
     12 C           6.0010   -1.6945    0.0000 C.3     1  UNL1        0.1454
     13 C           4.2690   -0.6945    0.0000 C.3     1  UNL1        0.1140
     14 C           6.0010   -0.6945    0.0000 C.3     1  UNL1        0.2308
     15 C           3.4030   -0.1945    0.0000 C.3     1  UNL1        0.0731
     16 C           6.8671    0.8055    0.0000 C.ar    1  UNL1        0.1418
     17 C           7.7671    1.3298    0.0000 C.ar    1  UNL1        0.1064
     18 C           7.7787    2.3297    0.0000 C.ar    1  UNL1        0.1463
     19 C           5.9670    1.3298    0.0000 C.ar    1  UNL1        0.0226
     20 C           8.6273    0.8198    0.0000 C.ar    1  UNL1        0.2037
     21 C           9.4991    1.3097    0.0000 C.ar    1  UNL1        0.0650
     22 C           9.5106    2.3097    0.0000 C.ar    1  UNL1        0.1395
     23 C           5.9790    2.3713    0.0000 C.ar    1  UNL1        0.1239
     24 C           6.8910    2.8746    0.0000 C.ar    1  UNL1        0.0231
     25 C          10.3868    0.7648    0.0000 C.ar    1  UNL1       -0.0442
     26 C          11.2987    1.2681    0.0000 C.ar    1  UNL1       -0.0466
     27 C          10.4107    2.8340    0.0000 C.ar    1  UNL1       -0.0155
     28 C          11.3108    2.3097    0.0000 C.ar    1  UNL1       -0.0440
     29 C          12.1569    0.7548    0.0000 C.3     1  UNL1       -0.0394
     30 C          12.1806    2.8030    0.0000 C.3     1  UNL1       -0.0393
     31 H           4.5981   -2.5045    0.0000 H       1  UNL1        0.0648
     32 H           4.2690   -2.3145    0.0000 H       1  UNL1        0.0647
     33 H           6.0010   -2.3145    0.0000 H       1  UNL1        0.0683
     34 H           4.2690   -0.0745    0.0000 H       1  UNL1        0.0647
     35 H           6.0010   -0.0745    0.0000 H       1  UNL1        0.1084
     36 H           3.8015    0.2804    0.0000 H       1  UNL1        0.0584
     37 H           3.0044    0.2804    0.0000 H       1  UNL1        0.0584
     38 H           4.5981   -3.5045    0.0000 H       1  UNL1        0.2100
     39 H           3.4030   -2.8145    0.0000 H       1  UNL1        0.2100
     40 H           6.8671   -2.8145    0.0000 H       1  UNL1        0.2102
     41 H           2.0000   -0.3845    0.0000 H       1  UNL1        0.2095
     42 H           5.4277    1.0239    0.0000 H       1  UNL1        0.0691
     43 H           6.9053    3.4945    0.0000 H       1  UNL1        0.0691
     44 H          10.3724    0.1449    0.0000 H       1  UNL1        0.0628
     45 H          10.4107    3.4540    0.0000 H       1  UNL1        0.0657
     46 H          11.8387    0.2227    0.0000 H       1  UNL1        0.0278
     47 H          12.6890    0.4366    0.0000 H       1  UNL1        0.0278
     48 H          12.4752    1.2869    0.0000 H       1  UNL1        0.0278
     49 H          12.4865    2.2637    0.0000 H       1  UNL1        0.0278
     50 H          12.7199    3.1088    0.0000 H       1  UNL1        0.0278
     51 H          11.8748    3.3423    0.0000 H       1  UNL1        0.0278
     52 H           5.1304    3.5045    0.0000 H       1  UNL1        0.2921
@<TRIPOS>BOND
     1     1    13    1
     2     1    14    1
     3    14     2    1
     4     2    16    1
     5    10     3    1
     6     3    38    1
     7    11     4    1
     8     4    39    1
     9    12     5    1
    10     5    40    1
    11     6    15    1
    12     6    41    1
    13     7    18   ar
    14     7    22   ar
    15     8    20    2
    16     9    23    1
    17     9    52    1
    18    10    11    1
    19    10    12    1
    20    10    31    1
    21    11    13    1
    22    11    32    1
    23    12    14    1
    24    12    33    1
    25    13    15    1
    26    13    34    1
    27    14    35    1
    28    15    36    1
    29    15    37    1
    30    16    17   ar
    31    16    19   ar
    32    17    18   ar
    33    17    20   ar
    34    18    24   ar
    35    19    23   ar
    36    19    42    1
    37    20    21   ar
    38    21    22   ar
    39    21    25   ar
    40    22    27   ar
    41    23    24   ar
    42    24    43    1
    43    25    26   ar
    44    25    44    1
    45    26    28   ar
    46    26    29    1
    47    27    28   ar
    48    27    45    1
    49    28    30    1
    50    29    46    1
    51    29    47    1
    52    29    48    1
    53    30    49    1
    54    30    50    1
    55    30    51    1
