@<TRIPOS>MOLECULE
IMPHY012646
 48 52 0 0 0
SMALL
GASTEIGER

@<TRIPOS>ATOM
      1 O           6.6710    0.1643    0.0000 O.3     1  UNL1       -0.3372
      2 O           8.4031    0.1643    0.0000 O.3     1  UNL1       -0.3503
      3 O           9.4302   -1.5175    0.0000 O.3     1  UNL1       -0.4521
      4 O           9.4431   -3.1939    0.0000 O.3     1  UNL1       -0.4526
      5 O           2.9731    2.4912    0.0000 O.3     1  UNL1       -0.4914
      6 O           4.9487    2.9505    0.0000 O.3     1  UNL1       -0.5033
      7 N           5.0341   -1.9420    0.0000 N.3     1  UNL1       -0.3067
      8 C           5.8050   -1.3357    0.0000 C.3     1  UNL1        0.0643
      9 C           5.8050   -0.3357    0.0000 C.3     1  UNL1        0.1067
     10 C           6.6710   -1.8357    0.0000 C.ar    1  UNL1       -0.0160
     11 C           5.0341    0.2707    0.0000 C.ar    1  UNL1       -0.0101
     12 C           7.5370   -1.3357    0.0000 C.ar    1  UNL1        0.0580
     13 C           7.5370   -0.3357    0.0000 C.3     1  UNL1        0.1895
     14 C           4.0788   -1.7199    0.0000 C.3     1  UNL1        0.0005
     15 C           4.0788    0.0486    0.0000 C.ar    1  UNL1       -0.0368
     16 C           3.6544   -0.8357    0.0000 C.3     1  UNL1       -0.0146
     17 C           8.4470   -1.8425    0.0000 C.ar    1  UNL1        0.1745
     18 C           6.6550   -2.8772    0.0000 C.ar    1  UNL1       -0.0529
     19 C           5.3463    1.2434    0.0000 C.ar    1  UNL1       -0.0106
     20 C           8.4551   -2.8841    0.0000 C.ar    1  UNL1        0.1667
     21 C           3.3694    0.7838    0.0000 C.ar    1  UNL1       -0.0127
     22 C           7.5530   -3.4049    0.0000 C.ar    1  UNL1       -0.0158
     23 C           4.6542    1.9949    0.0000 C.ar    1  UNL1        0.1588
     24 C           3.6591    1.7635    0.0000 C.ar    1  UNL1        0.1615
     25 C          10.0445   -2.3510    0.0000 C.3     1  UNL1        0.2332
     26 C           8.4031    1.1643    0.0000 C.3     1  UNL1        0.0398
     27 C           2.0000    2.2610    0.0000 C.3     1  UNL1        0.0790
     28 H           5.8492   -1.9541    0.0000 H       1  UNL1        0.0539
     29 H           6.3419   -0.6457    0.0000 H       1  UNL1        0.0667
     30 H           5.1688   -2.5472    0.0000 H       1  UNL1        0.1226
     31 H           7.5370    0.2843    0.0000 H       1  UNL1        0.0966
     32 H           3.4740   -1.8565    0.0000 H       1  UNL1        0.0427
     33 H           4.0768   -2.3399    0.0000 H       1  UNL1        0.0427
     34 H           3.1695   -0.4493    0.0000 H       1  UNL1        0.0326
     35 H           3.1695   -1.2220    0.0000 H       1  UNL1        0.0326
     36 H           6.1145   -3.1809    0.0000 H       1  UNL1        0.0622
     37 H           5.9518    1.3768    0.0000 H       1  UNL1        0.0659
     38 H           2.7672    0.6364    0.0000 H       1  UNL1        0.0658
     39 H           7.5506   -4.0249    0.0000 H       1  UNL1        0.0655
     40 H          10.5086   -2.7622    0.0000 H       1  UNL1        0.1166
     41 H          10.5022   -1.9328    0.0000 H       1  UNL1        0.1166
     42 H           9.0231    1.1643    0.0000 H       1  UNL1        0.0525
     43 H           8.4031    1.7843    0.0000 H       1  UNL1        0.0525
     44 H           7.7831    1.1643    0.0000 H       1  UNL1        0.0525
     45 H           4.5270    3.4049    0.0000 H       1  UNL1        0.2923
     46 H           1.8573    2.8643    0.0000 H       1  UNL1        0.0660
     47 H           1.3966    2.1183    0.0000 H       1  UNL1        0.0660
     48 H           2.1427    1.6576    0.0000 H       1  UNL1        0.0660
@<TRIPOS>BOND
     1     1     9    1
     2     1    13    1
     3     2    13    1
     4     2    26    1
     5     3    17    1
     6     3    25    1
     7     4    20    1
     8     4    25    1
     9     5    24    1
    10     5    27    1
    11     6    23    1
    12     6    45    1
    13     7     8    1
    14     7    14    1
    15     7    30    1
    16     8     9    1
    17     8    10    1
    18     8    28    1
    19     9    11    1
    20     9    29    1
    21    10    12   ar
    22    10    18   ar
    23    11    15   ar
    24    11    19   ar
    25    12    13    1
    26    12    17   ar
    27    13    31    1
    28    14    16    1
    29    14    32    1
    30    14    33    1
    31    15    16    1
    32    15    21   ar
    33    16    34    1
    34    16    35    1
    35    17    20   ar
    36    18    22   ar
    37    18    36    1
    38    19    23   ar
    39    19    37    1
    40    20    22   ar
    41    21    24   ar
    42    21    38    1
    43    22    39    1
    44    23    24   ar
    45    25    40    1
    46    25    41    1
    47    26    42    1
    48    26    43    1
    49    26    44    1
    50    27    46    1
    51    27    47    1
    52    27    48    1
