@<TRIPOS>MOLECULE
IMPHY006098
 32 35 0 0 0
SMALL
GASTEIGER

@<TRIPOS>ATOM
      1 O           5.7940   -1.4292    0.0000 O.2     1  UNL1       -0.4536
      2 O           7.9380    0.6393    0.0000 O.2     1  UNL1       -0.4214
      3 O           4.9343    1.8286    0.0000 O.3     1  UNL1       -0.5059
      4 O           2.3045   -0.5250    0.0000 O.3     1  UNL1       -0.4949
      5 O           6.6509    1.7982    0.0000 O.2     1  UNL1       -0.2444
      6 O          10.5776   -1.7049    0.0000 O.3     1  UNL1       -0.5066
      7 C           6.2908    0.1040    0.0000 C.ar    1  UNL1        0.1163
      8 C           5.2967    0.1015    0.0000 C.ar    1  UNL1        0.0764
      9 C           6.5998   -0.8470    0.0000 C.ar    1  UNL1        0.1539
     10 C           4.9903   -0.8442    0.0000 C.ar    1  UNL1        0.1435
     11 C           7.5779   -1.0549    0.0000 C.ar    1  UNL1        0.0607
     12 C           8.2470   -0.3118    0.0000 C.ar    1  UNL1        0.1461
     13 C           4.6151    0.8810    0.0000 C.ar    1  UNL1        0.1319
     14 C           6.9599    0.8472    0.0000 C.ar    1  UNL1        0.3489
     15 C           3.9811   -1.0760    0.0000 C.ar    1  UNL1        0.0232
     16 C           7.8845   -2.0504    0.0000 C.ar    1  UNL1       -0.0441
     17 C           3.2817   -0.3125    0.0000 C.ar    1  UNL1        0.1271
     18 C           3.6008    0.6726    0.0000 C.ar    1  UNL1        0.0224
     19 C           9.2691   -0.5126    0.0000 C.ar    1  UNL1        0.0230
     20 C           8.9017   -2.2748    0.0000 C.ar    1  UNL1       -0.0193
     21 C           9.5986   -1.5008    0.0000 C.ar    1  UNL1        0.1204
     22 C           2.0000   -1.4775    0.0000 C.3     1  UNL1        0.0788
     23 H           3.7969   -1.6680    0.0000 H       1  UNL1        0.0691
     24 H           7.4643   -2.5064    0.0000 H       1  UNL1        0.0627
     25 H           3.1873    1.1346    0.0000 H       1  UNL1        0.0691
     26 H           9.6786   -0.0471    0.0000 H       1  UNL1        0.0691
     27 H           9.0910   -2.8652    0.0000 H       1  UNL1        0.0654
     28 H           4.5244    2.2938    0.0000 H       1  UNL1        0.2922
     29 H          10.7714   -2.2938    0.0000 H       1  UNL1        0.2921
     30 H           1.4095   -1.2887    0.0000 H       1  UNL1        0.0660
     31 H           1.8112   -2.0680    0.0000 H       1  UNL1        0.0660
     32 H           2.5906   -1.6663    0.0000 H       1  UNL1        0.0660
@<TRIPOS>BOND
     1     1     9   ar
     2     1    10   ar
     3     2    12   ar
     4     2    14   ar
     5     3    13    1
     6     3    28    1
     7     4    17    1
     8     4    22    1
     9     5    14    2
    10     6    21    1
    11     6    29    1
    12     7     8   ar
    13     7     9   ar
    14     7    14   ar
    15     8    10   ar
    16     8    13   ar
    17     9    11   ar
    18    10    15   ar
    19    11    12   ar
    20    11    16   ar
    21    12    19   ar
    22    13    18   ar
    23    15    17   ar
    24    15    23    1
    25    16    20   ar
    26    16    24    1
    27    17    18   ar
    28    18    25    1
    29    19    21   ar
    30    19    26    1
    31    20    21   ar
    32    20    27    1
    33    22    30    1
    34    22    31    1
    35    22    32    1
