@<TRIPOS>MOLECULE
IMPHY014053
 24 24 0 0 0
SMALL
GASTEIGER

@<TRIPOS>ATOM
      1 O           2.8660   -3.0600    0.0000 O.3     1  UNL1       -0.4951
      2 O           4.5981    2.9400    0.0000 O.3     1  UNL1       -0.3910
      3 C           2.8660   -0.0600    0.0000 C.ar    1  UNL1       -0.0250
      4 C           3.7320   -0.5600    0.0000 C.ar    1  UNL1       -0.0511
      5 C           2.0000   -0.5600    0.0000 C.ar    1  UNL1       -0.0511
      6 C           2.8660   -2.0600    0.0000 C.ar    1  UNL1        0.1201
      7 C           3.7320   -1.5600    0.0000 C.ar    1  UNL1       -0.0194
      8 C           2.0000   -1.5600    0.0000 C.ar    1  UNL1       -0.0194
      9 C           2.8660    0.9400    0.0000 C.2     1  UNL1       -0.0564
     10 C           3.7320    1.4400    0.0000 C.2     1  UNL1       -0.0584
     11 C           3.7320    2.4400    0.0000 C.3     1  UNL1        0.0627
     12 C           2.0000   -3.5600    0.0000 C.3     1  UNL1        0.0788
     13 H           4.2690   -0.2500    0.0000 H       1  UNL1        0.0625
     14 H           1.4631   -0.2500    0.0000 H       1  UNL1        0.0625
     15 H           4.2690   -1.8700    0.0000 H       1  UNL1        0.0654
     16 H           1.4631   -1.8700    0.0000 H       1  UNL1        0.0654
     17 H           2.3291    1.2500    0.0000 H       1  UNL1        0.0621
     18 H           4.2690    1.1300    0.0000 H       1  UNL1        0.0595
     19 H           3.5200    3.0226    0.0000 H       1  UNL1        0.0601
     20 H           3.1215    2.3323    0.0000 H       1  UNL1        0.0601
     21 H           1.6900   -3.0231    0.0000 H       1  UNL1        0.0660
     22 H           1.4631   -3.8700    0.0000 H       1  UNL1        0.0660
     23 H           2.3100   -4.0969    0.0000 H       1  UNL1        0.0660
     24 H           4.5981    3.5600    0.0000 H       1  UNL1        0.2098
@<TRIPOS>BOND
     1     1     6    1
     2     1    12    1
     3     2    11    1
     4     2    24    1
     5     3     4   ar
     6     3     5   ar
     7     3     9    1
     8     4     7   ar
     9     4    13    1
    10     5     8   ar
    11     5    14    1
    12     6     7   ar
    13     6     8   ar
    14     7    15    1
    15     8    16    1
    16     9    10    2
    17     9    17    1
    18    10    11    1
    19    10    18    1
    20    11    19    1
    21    11    20    1
    22    12    21    1
    23    12    22    1
    24    12    23    1
