@<TRIPOS>MOLECULE
IMPHY005322
 27 27 0 0 0
SMALL
GASTEIGER

@<TRIPOS>ATOM
      1 O           4.5981    1.7500    0.0000 O.3     1  UNL1       -0.4649
      2 O           2.8660    1.7500    0.0000 O.2     1  UNL1       -0.2508
      3 C           2.8660   -0.2500    0.0000 C.3     1  UNL1       -0.0176
      4 C           3.7320    0.2500    0.0000 C.3     1  UNL1        0.0489
      5 C           2.8660   -1.2500    0.0000 C.ar    1  UNL1       -0.0468
      6 C           2.0000   -1.7500    0.0000 C.ar    1  UNL1       -0.0586
      7 C           3.7320   -1.7500    0.0000 C.ar    1  UNL1       -0.0586
      8 C           3.7320    1.2500    0.0000 C.2     1  UNL1        0.3074
      9 C           2.0000   -2.7500    0.0000 C.ar    1  UNL1       -0.0615
     10 C           3.7320   -2.7500    0.0000 C.ar    1  UNL1       -0.0615
     11 C           2.8660   -3.2500    0.0000 C.ar    1  UNL1       -0.0617
     12 C           4.5981    2.7500    0.0000 C.3     1  UNL1        0.0896
     13 C           5.4641    3.2500    0.0000 C.3     1  UNL1       -0.0306
     14 H           2.6540    0.3326    0.0000 H       1  UNL1        0.0318
     15 H           2.2554   -0.3577    0.0000 H       1  UNL1        0.0318
     16 H           3.9441   -0.3326    0.0000 H       1  UNL1        0.0381
     17 H           4.3426    0.3577    0.0000 H       1  UNL1        0.0381
     18 H           1.4631   -1.4400    0.0000 H       1  UNL1        0.0620
     19 H           4.2690   -1.4400    0.0000 H       1  UNL1        0.0620
     20 H           1.4631   -3.0600    0.0000 H       1  UNL1        0.0618
     21 H           4.2690   -3.0600    0.0000 H       1  UNL1        0.0618
     22 H           4.3860    3.3326    0.0000 H       1  UNL1        0.0694
     23 H           3.9875    2.6423    0.0000 H       1  UNL1        0.0694
     24 H           2.8660   -3.8700    0.0000 H       1  UNL1        0.0618
     25 H           5.7741    2.7131    0.0000 H       1  UNL1        0.0262
     26 H           6.0010    3.5600    0.0000 H       1  UNL1        0.0262
     27 H           5.1541    3.7869    0.0000 H       1  UNL1        0.0262
@<TRIPOS>BOND
     1     1     8    1
     2     1    12    1
     3     2     8    2
     4     3     4    1
     5     3     5    1
     6     3    14    1
     7     3    15    1
     8     4     8    1
     9     4    16    1
    10     4    17    1
    11     5     6   ar
    12     5     7   ar
    13     6     9   ar
    14     6    18    1
    15     7    10   ar
    16     7    19    1
    17     9    11   ar
    18     9    20    1
    19    10    11   ar
    20    10    21    1
    21    11    24    1
    22    12    13    1
    23    12    22    1
    24    12    23    1
    25    13    25    1
    26    13    26    1
    27    13    27    1
