@<TRIPOS>MOLECULE
IMPHY001234
 86 93 0 0 0
SMALL
GASTEIGER

@<TRIPOS>ATOM
      1 O           6.4001   -0.3883    0.0000 O.3     1  UNL1       -0.4515
      2 O           4.3756    0.5866    0.0000 O.3     1  UNL1       -0.4803
      3 O          11.0431   -0.0613    0.0000 O.3     1  UNL1       -0.4519
      4 O           2.8327   -0.5175    0.0000 O.3     1  UNL1       -0.4913
      5 O          12.3622    0.2047    0.0000 O.3     1  UNL1       -0.4885
      6 O          13.2183    1.9669    0.0000 O.3     1  UNL1       -0.4913
      7 N           6.6789   -3.3882    0.0000 N.3     1  UNL1       -0.2977
      8 N           9.0730    3.3201    0.0000 N.3     1  UNL1       -0.2977
      9 C           6.5812   -2.3076    0.0000 C.3     1  UNL1        0.0432
     10 C           9.4185    2.4039    0.0000 C.3     1  UNL1        0.0432
     11 C           5.5930   -1.8596    0.0000 C.ar    1  UNL1        0.0193
     12 C          10.2624    1.8101    0.0000 C.ar    1  UNL1        0.0193
     13 C           5.7872   -4.0063    0.0000 C.3     1  UNL1        0.0032
     14 C           4.7369   -2.4530    0.0000 C.ar    1  UNL1       -0.0343
     15 C           4.8096   -3.5355    0.0000 C.3     1  UNL1       -0.0143
     16 C           8.4158    2.6475    0.0000 C.3     1  UNL1       -0.0078
     17 C           9.7715    4.0063    0.0000 C.3     1  UNL1        0.0032
     18 C           7.5008   -2.7758    0.0000 C.3     1  UNL1       -0.0078
     19 C          10.7181    2.6661    0.0000 C.ar    1  UNL1       -0.0343
     20 C          10.6814    3.6446    0.0000 C.3     1  UNL1       -0.0143
     21 C           5.4991   -0.8222    0.0000 C.ar    1  UNL1        0.1784
     22 C          10.8303    0.9484    0.0000 C.ar    1  UNL1        0.1784
     23 C           7.3935    2.5070    0.0000 C.ar    1  UNL1       -0.0450
     24 C           3.7984   -2.0010    0.0000 C.ar    1  UNL1       -0.0125
     25 C           4.5982   -0.3883    0.0000 C.ar    1  UNL1        0.2051
     26 C           7.5848   -3.8116    0.0000 C.3     1  UNL1       -0.0122
     27 C           8.5280   -2.8746    0.0000 C.ar    1  UNL1       -0.0453
     28 C           8.0964    3.5352    0.0000 C.3     1  UNL1       -0.0122
     29 C          11.6868    2.7115    0.0000 C.ar    1  UNL1       -0.0125
     30 C           3.7286   -0.9617    0.0000 C.ar    1  UNL1        0.1655
     31 C           5.9991    1.3685    0.0000 C.ar    1  UNL1        0.0321
     32 C           6.3647    2.3438    0.0000 C.ar    1  UNL1       -0.0486
     33 C           6.6226    0.5866    0.0000 C.ar    1  UNL1        0.1350
     34 C          11.7966    1.0294    0.0000 C.ar    1  UNL1        0.2045
     35 C          12.2204    1.9017    0.0000 C.ar    1  UNL1        0.1655
     36 C           8.0429    1.6926    0.0000 C.ar    1  UNL1       -0.0550
     37 C           4.9991    1.3685    0.0000 C.3     1  UNL1        0.1184
     38 C           7.6549    0.7260    0.0000 C.ar    1  UNL1       -0.0187
     39 C           9.1734   -2.1115    0.0000 C.ar    1  UNL1       -0.0550
     40 C           9.5200   -2.5905    0.0000 C.ar    1  UNL1       -0.0550
     41 C          10.8714   -1.0789    0.0000 C.ar    1  UNL1        0.1286
     42 C           9.9667   -1.5036    0.0000 C.ar    1  UNL1       -0.0191
     43 C          10.3391   -1.9629    0.0000 C.ar    1  UNL1       -0.0191
     44 C           2.0000   -1.0712    0.0000 C.3     1  UNL1        0.0790
     45 C          13.3592    0.2822    0.0000 C.3     1  UNL1        0.0791
     46 C          13.6608    2.8637    0.0000 C.3     1  UNL1        0.0790
     47 H           6.5046   -1.4611    0.0000 H       1  UNL1        0.0516
     48 H           9.0675    1.6298    0.0000 H       1  UNL1        0.0516
     49 H           5.4266   -4.5106    0.0000 H       1  UNL1        0.0430
     50 H           6.2224   -4.4479    0.0000 H       1  UNL1        0.0430
     51 H           8.7845    3.1460    0.0000 H       1  UNL1        0.0332
     52 H           8.3843    2.0284    0.0000 H       1  UNL1        0.0332
     53 H           4.1930   -3.4706    0.0000 H       1  UNL1        0.0326
     54 H           4.6402   -4.1319    0.0000 H       1  UNL1        0.0326
     55 H          10.0779    4.5452    0.0000 H       1  UNL1        0.0430
     56 H           9.2800    4.3843    0.0000 H       1  UNL1        0.0430
     57 H           7.0271   -3.1758    0.0000 H       1  UNL1        0.0332
     58 H           7.6742   -2.1805    0.0000 H       1  UNL1        0.0332
     59 H          11.2982    3.5820    0.0000 H       1  UNL1        0.0326
     60 H          10.8286    4.2468    0.0000 H       1  UNL1        0.0326
     61 H           3.2848   -2.3483    0.0000 H       1  UNL1        0.0658
     62 H           7.3223   -4.3733    0.0000 H       1  UNL1        0.0391
     63 H           8.1465   -4.0742    0.0000 H       1  UNL1        0.0391
     64 H           7.8474   -3.2500    0.0000 H       1  UNL1        0.0391
     65 H           8.2298    4.1407    0.0000 H       1  UNL1        0.0391
     66 H           7.4909    3.6686    0.0000 H       1  UNL1        0.0391
     67 H           7.9631    2.9297    0.0000 H       1  UNL1        0.0391
     68 H          11.9680    3.2641    0.0000 H       1  UNL1        0.0658
     69 H           5.9726    2.8241    0.0000 H       1  UNL1        0.0625
     70 H           8.6563    1.7827    0.0000 H       1  UNL1        0.0621
     71 H           5.1371    1.9729    0.0000 H       1  UNL1        0.0749
     72 H           4.4405    1.6375    0.0000 H       1  UNL1        0.0749
     73 H           8.0358    0.2368    0.0000 H       1  UNL1        0.0654
     74 H           8.7457   -1.6627    0.0000 H       1  UNL1        0.0621
     75 H           9.7988   -3.1443    0.0000 H       1  UNL1        0.0621
     76 H           9.6446   -0.9739    0.0000 H       1  UNL1        0.0654
     77 H          10.8013   -2.3761    0.0000 H       1  UNL1        0.0654
     78 H           1.6567   -0.5549    0.0000 H       1  UNL1        0.0660
     79 H           1.4837   -1.4145    0.0000 H       1  UNL1        0.0660
     80 H           2.3433   -1.5874    0.0000 H       1  UNL1        0.0660
     81 H          13.4072   -0.3360    0.0000 H       1  UNL1        0.0660
     82 H          13.9773    0.3302    0.0000 H       1  UNL1        0.0660
     83 H          13.3112    0.9003    0.0000 H       1  UNL1        0.0660
     84 H          14.2168    2.5893    0.0000 H       1  UNL1        0.0660
     85 H          13.9351    3.4197    0.0000 H       1  UNL1        0.0660
     86 H          13.1048    3.1380    0.0000 H       1  UNL1        0.0660
@<TRIPOS>BOND
     1     1    21    1
     2     1    33    1
     3     2    25    1
     4     2    37    1
     5     3    22    1
     6     3    41    1
     7     4    30    1
     8     4    44    1
     9     5    34    1
    10     5    45    1
    11     6    35    1
    12     6    46    1
    13     7     9    1
    14     7    13    1
    15     7    26    1
    16     8    10    1
    17     8    17    1
    18     8    28    1
    19     9    11    1
    20     9    18    1
    21     9    47    1
    22    10    12    1
    23    10    16    1
    24    10    48    1
    25    11    14   ar
    26    11    21   ar
    27    12    19   ar
    28    12    22   ar
    29    13    15    1
    30    13    49    1
    31    13    50    1
    32    14    15    1
    33    14    24   ar
    34    15    53    1
    35    15    54    1
    36    16    23    1
    37    16    51    1
    38    16    52    1
    39    17    20    1
    40    17    55    1
    41    17    56    1
    42    18    27    1
    43    18    57    1
    44    18    58    1
    45    19    20    1
    46    19    29   ar
    47    20    59    1
    48    20    60    1
    49    21    25   ar
    50    22    34   ar
    51    23    32   ar
    52    23    36   ar
    53    24    30   ar
    54    24    61    1
    55    25    30   ar
    56    26    62    1
    57    26    63    1
    58    26    64    1
    59    27    39   ar
    60    27    40   ar
    61    28    65    1
    62    28    66    1
    63    28    67    1
    64    29    35   ar
    65    29    68    1
    66    31    32   ar
    67    31    33   ar
    68    31    37    1
    69    32    69    1
    70    33    38   ar
    71    34    35   ar
    72    36    38   ar
    73    36    70    1
    74    37    71    1
    75    37    72    1
    76    38    73    1
    77    39    42   ar
    78    39    74    1
    79    40    43   ar
    80    40    75    1
    81    41    42   ar
    82    41    43   ar
    83    42    76    1
    84    43    77    1
    85    44    78    1
    86    44    79    1
    87    44    80    1
    88    45    81    1
    89    45    82    1
    90    45    83    1
    91    46    84    1
    92    46    85    1
    93    46    86    1
