@<TRIPOS>MOLECULE
IMPHY010216
 60 62 0 0 0
SMALL
GASTEIGER

@<TRIPOS>ATOM
      1 O           6.0682    2.0000    0.0000 O.2     1  UNL1       -0.2914
      2 O           6.0682   -2.0000    0.0000 O.2     1  UNL1       -0.2917
      3 O           2.5381    1.0241    0.0000 O.3     1  UNL1       -0.5031
      4 O           2.5381   -1.0241    0.0000 O.3     1  UNL1       -0.5028
      5 O           3.4597   -2.5446    0.0000 O.2     1  UNL1       -0.2956
      6 C           6.9343    0.5000    0.0000 C.3     1  UNL1        0.0445
      7 C           6.9343   -0.5000    0.0000 C.3     1  UNL1        0.0382
      8 C           7.8282    1.0347    0.0000 C.3     1  UNL1       -0.0186
      9 C           7.8282   -1.0347    0.0000 C.3     1  UNL1       -0.0237
     10 C           6.0682    1.0000    0.0000 C.2     1  UNL1        0.1711
     11 C           8.7343    0.5208    0.0000 C.2     1  UNL1       -0.0722
     12 C           6.9343    1.5000    0.0000 C.3     1  UNL1       -0.0515
     13 C           6.0682   -1.0000    0.0000 C.2     1  UNL1        0.1689
     14 C           5.2022    0.5000    0.0000 C.ar    1  UNL1        0.0362
     15 C           8.7343   -0.5208    0.0000 C.2     1  UNL1       -0.0840
     16 C           5.2022   -0.5000    0.0000 C.ar    1  UNL1        0.0424
     17 C           9.5984    1.0241    0.0000 C.3     1  UNL1       -0.0283
     18 C           4.3083    1.0347    0.0000 C.ar    1  UNL1        0.0114
     19 C           4.3083   -1.0347    0.0000 C.ar    1  UNL1        0.0703
     20 C           4.3198    2.0346    0.0000 C.3     1  UNL1       -0.0173
     21 C           3.4022    0.5208    0.0000 C.ar    1  UNL1        0.1631
     22 C          10.4663    0.5275    0.0000 C.3     1  UNL1       -0.0308
     23 C           3.4022   -0.5208    0.0000 C.ar    1  UNL1        0.1696
     24 C           3.4597    2.5446    0.0000 C.3     1  UNL1       -0.0585
     25 C           5.1916    2.5246    0.0000 C.3     1  UNL1       -0.0585
     26 C           4.3198   -2.0346    0.0000 C.2     1  UNL1        0.1545
     27 C          11.3304    1.0308    0.0000 C.2     1  UNL1       -0.0850
     28 C          12.1984    0.5342    0.0000 C.2     1  UNL1       -0.0796
     29 C          13.0625    1.0375    0.0000 C.3     1  UNL1       -0.0440
     30 C          12.2022   -0.4658    0.0000 C.3     1  UNL1       -0.0440
     31 H           6.9295   -1.1200    0.0000 H       1  UNL1        0.0394
     32 H           8.2218    1.5137    0.0000 H       1  UNL1        0.0320
     33 H           7.4236    1.5044    0.0000 H       1  UNL1        0.0320
     34 H           7.4236   -1.5044    0.0000 H       1  UNL1        0.0315
     35 H           8.2218   -1.5137    0.0000 H       1  UNL1        0.0315
     36 H           7.5543    1.5000    0.0000 H       1  UNL1        0.0239
     37 H           6.9343    2.1200    0.0000 H       1  UNL1        0.0239
     38 H           6.3143    1.5000    0.0000 H       1  UNL1        0.0239
     39 H           9.2700   -0.8329    0.0000 H       1  UNL1        0.0572
     40 H           9.9951    1.5006    0.0000 H       1  UNL1        0.0313
     41 H           9.1980    1.4976    0.0000 H       1  UNL1        0.0313
     42 H           4.3270    2.6546    0.0000 H       1  UNL1        0.0345
     43 H          10.0696    0.0510    0.0000 H       1  UNL1        0.0310
     44 H          10.8667    0.0541    0.0000 H       1  UNL1        0.0310
     45 H           3.7758    3.0779    0.0000 H       1  UNL1        0.0235
     46 H           2.9263    2.8608    0.0000 H       1  UNL1        0.0235
     47 H           3.1435    2.0113    0.0000 H       1  UNL1        0.0235
     48 H           5.4954    1.9841    0.0000 H       1  UNL1        0.0235
     49 H           5.7321    2.8283    0.0000 H       1  UNL1        0.0235
     50 H           4.8878    3.0650    0.0000 H       1  UNL1        0.0235
     51 H           4.8603   -2.3384    0.0000 H       1  UNL1        0.1083
     52 H          11.3280    1.6508    0.0000 H       1  UNL1        0.0572
     53 H           2.0000    0.7162    0.0000 H       1  UNL1        0.2923
     54 H           2.0000   -0.7162    0.0000 H       1  UNL1        0.2923
     55 H          11.5822   -0.4682    0.0000 H       1  UNL1        0.0274
     56 H          12.2046   -1.0858    0.0000 H       1  UNL1        0.0274
     57 H          13.3745    0.5018    0.0000 H       1  UNL1        0.0274
     58 H          13.5982    1.3496    0.0000 H       1  UNL1        0.0274
     59 H          12.7504    1.5732    0.0000 H       1  UNL1        0.0274
     60 H          12.8222   -0.4634    0.0000 H       1  UNL1        0.0274
@<TRIPOS>BOND
     1     1    10    2
     2     2    13    2
     3     3    21    1
     4     3    53    1
     5     4    23    1
     6     4    54    1
     7     5    26    2
     8     6     7    1
     9     6     8    1
    10     6    10    1
    11     6    12    1
    12     7     9    1
    13     7    13    1
    14     7    31    1
    15     8    11    1
    16     8    32    1
    17     8    33    1
    18     9    15    1
    19     9    34    1
    20     9    35    1
    21    10    14    1
    22    11    15    2
    23    11    17    1
    24    12    36    1
    25    12    37    1
    26    12    38    1
    27    13    16    1
    28    14    16   ar
    29    14    18   ar
    30    15    39    1
    31    16    19   ar
    32    17    22    1
    33    17    40    1
    34    17    41    1
    35    18    20    1
    36    18    21   ar
    37    19    23   ar
    38    19    26    1
    39    20    24    1
    40    20    25    1
    41    20    42    1
    42    21    23   ar
    43    22    27    1
    44    22    43    1
    45    22    44    1
    46    24    45    1
    47    24    46    1
    48    24    47    1
    49    25    48    1
    50    25    49    1
    51    25    50    1
    52    26    51    1
    53    27    28    2
    54    27    52    1
    55    28    29    1
    56    28    30    1
    57    29    57    1
    58    29    58    1
    59    29    59    1
    60    30    55    1
    61    30    56    1
    62    30    60    1
