@<TRIPOS>MOLECULE
IMPHY006839
 19 20 0 0 0
SMALL
GASTEIGER

@<TRIPOS>ATOM
      1 O           4.2690    1.8100    0.0000 O.2     1  UNL1       -0.2652
      2 N           3.4030    0.3100    0.0000 N.ar    1  UNL1       -0.2825
      3 N           6.0812    0.6147    0.0000 N.ar    1  UNL1       -0.3389
      4 N           4.2690   -1.1900    0.0000 N.ar    1  UNL1       -0.1946
      5 N           6.0812   -0.9947    0.0000 N.ar    1  UNL1       -0.2163
      6 N           2.5369   -1.1900    0.0000 N.pl3   1  UNL1       -0.3287
      7 C           5.1350    0.3100    0.0000 C.ar    1  UNL1        0.1505
      8 C           4.2690    0.8100    0.0000 C.ar    1  UNL1        0.2806
      9 C           5.1350   -0.6900    0.0000 C.ar    1  UNL1        0.1863
     10 C           3.4030   -0.6900    0.0000 C.ar    1  UNL1        0.1974
     11 C           2.5369    0.8100    0.0000 C.3     1  UNL1        0.0179
     12 C           6.6648   -0.1900    0.0000 C.ar    1  UNL1        0.0963
     13 H           6.2738    1.2040    0.0000 H       1  UNL1        0.1670
     14 H           2.8469    1.3469    0.0000 H       1  UNL1        0.0458
     15 H           2.0000    1.1200    0.0000 H       1  UNL1        0.0458
     16 H           2.2269    0.2731    0.0000 H       1  UNL1        0.0458
     17 H           7.2848   -0.1900    0.0000 H       1  UNL1        0.1027
     18 H           2.5369   -1.8100    0.0000 H       1  UNL1        0.1451
     19 H           2.0000   -0.8800    0.0000 H       1  UNL1        0.1451
@<TRIPOS>BOND
     1     1     8    2
     2     2     8   ar
     3     2    10   ar
     4     2    11    1
     5     3     7   ar
     6     3    12   ar
     7     3    13    1
     8     4     9   ar
     9     4    10   ar
    10     5     9   ar
    11     5    12   ar
    12     6    10    1
    13     6    18    1
    14     6    19    1
    15     7     8   ar
    16     7     9   ar
    17    11    14    1
    18    11    15    1
    19    11    16    1
    20    12    17    1
