@<TRIPOS>MOLECULE
IMPHY005717
 44 47 0 0 0
SMALL
GASTEIGER

@<TRIPOS>ATOM
      1 O           2.0520    1.1296    0.0000 O.3     1  UNL1       -0.3889
      2 O           3.7841    2.1296    0.0000 O.3     1  UNL1       -0.3886
      3 N           3.8001   -1.9119    0.0000 N.3     1  UNL1       -0.2924
      4 C           3.7841   -0.8704    0.0000 C.3     1  UNL1        0.0489
      5 C           2.9180   -0.3704    0.0000 C.3     1  UNL1        0.0098
      6 C           4.6501    0.6296    0.0000 C.3     1  UNL1        0.0105
      7 C           4.6501   -0.3704    0.0000 C.2     1  UNL1       -0.0474
      8 C           3.5810   -0.5004    0.0000 C.3     1  UNL1       -0.0276
      9 C           2.9180    0.6296    0.0000 C.3     1  UNL1        0.0864
     10 C           3.7841    1.1296    0.0000 C.3     1  UNL1        0.0879
     11 C           3.4973    0.2952    0.0000 C.3     1  UNL1       -0.0413
     12 C           4.2282    0.6206    0.0000 C.3     1  UNL1       -0.0413
     13 C           2.0080   -0.8772    0.0000 C.3     1  UNL1       -0.0446
     14 C           2.9021   -2.4396    0.0000 C.3     1  UNL1       -0.0003
     15 C           2.0000   -1.9188    0.0000 C.3     1  UNL1       -0.0398
     16 C           4.6984   -2.4208    0.0000 C.3     1  UNL1        0.0031
     17 C           5.5599   -0.8584    0.0000 C.2     1  UNL1       -0.0815
     18 C           5.5842   -1.8905    0.0000 C.3     1  UNL1       -0.0216
     19 C           3.1553    1.2349    0.0000 C.3     1  UNL1       -0.0623
     20 H           2.1819    0.0546    0.0000 H       1  UNL1        0.0348
     21 H           5.0751    1.3658    0.0000 H       1  UNL1        0.0372
     22 H           2.9862   -0.3253    0.0000 H       1  UNL1        0.0289
     23 H           4.1726   -0.3152    0.0000 H       1  UNL1        0.0289
     24 H           2.9180    1.2496    0.0000 H       1  UNL1        0.0623
     25 H           4.3210    1.4396    0.0000 H       1  UNL1        0.0625
     26 H           2.8932    0.1557    0.0000 H       1  UNL1        0.0299
     27 H           4.4522    1.1987    0.0000 H       1  UNL1        0.0274
     28 H           4.3636    0.0155    0.0000 H       1  UNL1        0.0274
     29 H           1.8035   -0.2919    0.0000 H       1  UNL1        0.0270
     30 H           1.3964   -0.9786    0.0000 H       1  UNL1        0.0270
     31 H           2.5048   -2.9156    0.0000 H       1  UNL1        0.0427
     32 H           3.3030   -2.9125    0.0000 H       1  UNL1        0.0427
     33 H           1.3900   -1.8080    0.0000 H       1  UNL1        0.0278
     34 H           1.7864   -2.5009    0.0000 H       1  UNL1        0.0278
     35 H           4.3050   -2.9000    0.0000 H       1  UNL1        0.0430
     36 H           5.1032   -2.8904    0.0000 H       1  UNL1        0.0430
     37 H           6.0881   -0.5338    0.0000 H       1  UNL1        0.0573
     38 H           5.8069   -2.4691    0.0000 H       1  UNL1        0.0320
     39 H           6.1924   -1.7700    0.0000 H       1  UNL1        0.0320
     40 H           3.7379    1.4469    0.0000 H       1  UNL1        0.0232
     41 H           2.9433    1.8175    0.0000 H       1  UNL1        0.0232
     42 H           2.5727    1.0228    0.0000 H       1  UNL1        0.0232
     43 H           2.0520    1.7496    0.0000 H       1  UNL1        0.2099
     44 H           4.3210    2.4396    0.0000 H       1  UNL1        0.2099
@<TRIPOS>BOND
     1     9     1    1
     2     1    43    1
     3    10     2    1
     4     2    44    1
     5     4     3    1
     6     3    14    1
     7     3    16    1
     8     4     5    1
     9     4     7    1
    10     4     8    1
    11     5     9    1
    12     5    13    1
    13     5    20    1
    14     6     7    1
    15     6    10    1
    16     6    12    1
    17     6    21    1
    18     7    17    2
    19     8    11    1
    20     8    22    1
    21     8    23    1
    22     9    10    1
    23     9    24    1
    24    10    25    1
    25    11    12    1
    26    11    19    1
    27    11    26    1
    28    12    27    1
    29    12    28    1
    30    13    15    1
    31    13    29    1
    32    13    30    1
    33    14    15    1
    34    14    31    1
    35    14    32    1
    36    15    33    1
    37    15    34    1
    38    16    18    1
    39    16    35    1
    40    16    36    1
    41    17    18    1
    42    17    37    1
    43    18    38    1
    44    18    39    1
    45    19    40    1
    46    19    41    1
    47    19    42    1
