@<TRIPOS>MOLECULE
IMPHY005849
 29 32 0 0 0
SMALL
GASTEIGER

@<TRIPOS>ATOM
      1 O           5.9065   -0.4852    0.0000 O.2     1  UNL1       -0.4537
      2 O           8.0505    1.5833    0.0000 O.2     1  UNL1       -0.4214
      3 O           6.7634    2.7422    0.0000 O.2     1  UNL1       -0.2444
      4 O           9.3195   -2.2831    0.0000 O.3     1  UNL1       -0.5033
      5 O          10.6901   -0.7609    0.0000 O.3     1  UNL1       -0.5032
      6 O           2.4170    0.4190    0.0000 O.3     1  UNL1       -0.5066
      7 C           6.4033    1.0480    0.0000 C.ar    1  UNL1        0.1128
      8 C           6.7123    0.0970    0.0000 C.ar    1  UNL1        0.1539
      9 C           5.4092    1.0454    0.0000 C.ar    1  UNL1        0.0351
     10 C           7.6904   -0.1109    0.0000 C.ar    1  UNL1        0.0641
     11 C           5.1028    0.0998    0.0000 C.ar    1  UNL1        0.1400
     12 C           8.3596    0.6322    0.0000 C.ar    1  UNL1        0.1463
     13 C           7.0724    1.7912    0.0000 C.ar    1  UNL1        0.3488
     14 C           7.9970   -1.1064    0.0000 C.ar    1  UNL1       -0.0023
     15 C           4.7276    1.8250    0.0000 C.ar    1  UNL1       -0.0467
     16 C           4.0936   -0.1320    0.0000 C.ar    1  UNL1        0.0228
     17 C           9.3816    0.4314    0.0000 C.ar    1  UNL1        0.0266
     18 C           9.0142   -1.3308    0.0000 C.ar    1  UNL1        0.1591
     19 C           3.7133    1.6166    0.0000 C.ar    1  UNL1       -0.0194
     20 C           9.7112   -0.5568    0.0000 C.ar    1  UNL1        0.1618
     21 C           3.3942    0.6315    0.0000 C.ar    1  UNL1        0.1204
     22 H           7.5768   -1.5623    0.0000 H       1  UNL1        0.0663
     23 H           4.9255    2.4125    0.0000 H       1  UNL1        0.0626
     24 H           3.9094   -0.7240    0.0000 H       1  UNL1        0.0691
     25 H           9.7912    0.8969    0.0000 H       1  UNL1        0.0692
     26 H           3.2998    2.0786    0.0000 H       1  UNL1        0.0654
     27 H           8.9029   -2.7422    0.0000 H       1  UNL1        0.2923
     28 H          11.1032   -0.2986    0.0000 H       1  UNL1        0.2923
     29 H           2.0000    0.8778    0.0000 H       1  UNL1        0.2921
@<TRIPOS>BOND
     1     1     8   ar
     2     1    11   ar
     3     2    12   ar
     4     2    13   ar
     5     3    13    2
     6     4    18    1
     7     4    27    1
     8     5    20    1
     9     5    28    1
    10     6    21    1
    11     6    29    1
    12     7     8   ar
    13     7     9   ar
    14     7    13   ar
    15     8    10   ar
    16     9    11   ar
    17     9    15   ar
    18    10    12   ar
    19    10    14   ar
    20    11    16   ar
    21    12    17   ar
    22    14    18   ar
    23    14    22    1
    24    15    19   ar
    25    15    23    1
    26    16    21   ar
    27    16    24    1
    28    17    20   ar
    29    17    25    1
    30    18    20   ar
    31    19    21   ar
    32    19    26    1
