@<TRIPOS>MOLECULE
IMPHY011999
 27 27 0 0 0
SMALL
GASTEIGER

@<TRIPOS>ATOM
      1 O           2.5369   -1.2500    0.0000 O.3     1  UNL1       -0.3875
      2 C           4.2690    0.7500    0.0000 C.3     1  UNL1       -0.0143
      3 C           3.4030    0.2500    0.0000 C.3     1  UNL1       -0.0162
      4 C           3.4030   -0.7500    0.0000 C.3     1  UNL1        0.0766
      5 C           5.1350    0.2500    0.0000 C.3     1  UNL1       -0.0278
      6 C           4.2690   -1.2500    0.0000 C.2     1  UNL1       -0.0484
      7 C           5.1350   -0.7500    0.0000 C.2     1  UNL1       -0.0820
      8 C           4.2690    1.7500    0.0000 C.2     1  UNL1       -0.0762
      9 C           4.2690   -2.2500    0.0000 C.3     1  UNL1       -0.0414
     10 C           5.1350    2.2500    0.0000 C.3     1  UNL1       -0.0438
     11 C           3.4030    2.2500    0.0000 C.2     1  UNL1       -0.0994
     12 H           4.8059    1.0600    0.0000 H       1  UNL1        0.0349
     13 H           3.1909    0.8326    0.0000 H       1  UNL1        0.0299
     14 H           2.7924    0.1423    0.0000 H       1  UNL1        0.0299
     15 H           3.4030   -1.3700    0.0000 H       1  UNL1        0.0640
     16 H           5.7456    0.1423    0.0000 H       1  UNL1        0.0313
     17 H           5.3471    0.8326    0.0000 H       1  UNL1        0.0313
     18 H           5.6720   -1.0600    0.0000 H       1  UNL1        0.0573
     19 H           3.6490   -2.2500    0.0000 H       1  UNL1        0.0275
     20 H           4.2690   -2.8700    0.0000 H       1  UNL1        0.0275
     21 H           4.8890   -2.2500    0.0000 H       1  UNL1        0.0275
     22 H           5.4450    1.7131    0.0000 H       1  UNL1        0.0274
     23 H           5.6720    2.5600    0.0000 H       1  UNL1        0.0274
     24 H           4.8250    2.7869    0.0000 H       1  UNL1        0.0274
     25 H           2.0000   -0.9400    0.0000 H       1  UNL1        0.2102
     26 H           3.4030    2.8700    0.0000 H       1  UNL1        0.0534
     27 H           2.8660    1.9400    0.0000 H       1  UNL1        0.0534
@<TRIPOS>BOND
     1     1     4    1
     2     1    25    1
     3     2     3    1
     4     2     5    1
     5     2     8    1
     6     2    12    1
     7     3     4    1
     8     3    13    1
     9     3    14    1
    10     4     6    1
    11     4    15    1
    12     5     7    1
    13     5    16    1
    14     5    17    1
    15     6     7    2
    16     6     9    1
    17     7    18    1
    18     8    10    1
    19     8    11    2
    20     9    19    1
    21     9    20    1
    22     9    21    1
    23    10    22    1
    24    10    23    1
    25    10    24    1
    26    11    26    1
    27    11    27    1
