@<TRIPOS>MOLECULE
IMPHY009402
 47 49 0 0 0
SMALL
GASTEIGER

@<TRIPOS>ATOM
      1 O           4.5981    1.2500    0.0000 O.2     1  UNL1       -0.2920
      2 O           9.7942    1.2500    0.0000 O.2     1  UNL1       -0.2920
      3 N           7.1962   -0.2500    0.0000 N.3     1  UNL1       -0.3097
      4 C           6.3301    0.2500    0.0000 C.3     1  UNL1        0.0149
      5 C           8.0622    0.2500    0.0000 C.3     1  UNL1        0.0149
      6 C           6.3301    1.2500    0.0000 C.3     1  UNL1       -0.0371
      7 C           8.0622    1.2500    0.0000 C.3     1  UNL1       -0.0371
      8 C           7.1962    1.7500    0.0000 C.3     1  UNL1       -0.0502
      9 C           5.4641   -0.2500    0.0000 C.3     1  UNL1        0.0259
     10 C           8.9282   -0.2500    0.0000 C.3     1  UNL1        0.0259
     11 C           9.7942    0.2500    0.0000 C.2     1  UNL1        0.1646
     12 C           4.5981    0.2500    0.0000 C.2     1  UNL1        0.1646
     13 C           3.7320   -0.2500    0.0000 C.ar    1  UNL1        0.0174
     14 C          10.6603   -0.2500    0.0000 C.ar    1  UNL1        0.0174
     15 C           2.8660    0.2500    0.0000 C.ar    1  UNL1       -0.0513
     16 C          10.6603   -1.2500    0.0000 C.ar    1  UNL1       -0.0513
     17 C           3.7320   -1.2500    0.0000 C.ar    1  UNL1       -0.0513
     18 C          11.5263    0.2500    0.0000 C.ar    1  UNL1       -0.0513
     19 C           2.0000   -0.2500    0.0000 C.ar    1  UNL1       -0.0611
     20 C          11.5263   -1.7500    0.0000 C.ar    1  UNL1       -0.0611
     21 C           2.8660   -1.7500    0.0000 C.ar    1  UNL1       -0.0611
     22 C          12.3923   -0.2500    0.0000 C.ar    1  UNL1       -0.0611
     23 C           2.0000   -1.2500    0.0000 C.ar    1  UNL1       -0.0617
     24 C          12.3923   -1.2500    0.0000 C.ar    1  UNL1       -0.0617
     25 H           6.3301   -0.3700    0.0000 H       1  UNL1        0.0465
     26 H           8.0622   -0.3700    0.0000 H       1  UNL1        0.0465
     27 H           6.1181    1.8326    0.0000 H       1  UNL1        0.0280
     28 H           5.7196    1.1423    0.0000 H       1  UNL1        0.0280
     29 H           8.6728    1.1423    0.0000 H       1  UNL1        0.0280
     30 H           8.2742    1.8326    0.0000 H       1  UNL1        0.0280
     31 H           7.5947    2.2250    0.0000 H       1  UNL1        0.0266
     32 H           6.7976    2.2250    0.0000 H       1  UNL1        0.0266
     33 H           7.1962   -0.8700    0.0000 H       1  UNL1        0.1225
     34 H           5.0656   -0.7249    0.0000 H       1  UNL1        0.0360
     35 H           5.8626   -0.7249    0.0000 H       1  UNL1        0.0360
     36 H           8.5297   -0.7249    0.0000 H       1  UNL1        0.0360
     37 H           9.3267   -0.7249    0.0000 H       1  UNL1        0.0360
     38 H           2.8660    0.8700    0.0000 H       1  UNL1        0.0624
     39 H          10.1233   -1.5600    0.0000 H       1  UNL1        0.0624
     40 H           4.2690   -1.5600    0.0000 H       1  UNL1        0.0624
     41 H          11.5263    0.8700    0.0000 H       1  UNL1        0.0624
     42 H           1.4631    0.0600    0.0000 H       1  UNL1        0.0618
     43 H          11.5263   -2.3700    0.0000 H       1  UNL1        0.0618
     44 H           2.8660   -2.3700    0.0000 H       1  UNL1        0.0618
     45 H          12.9292    0.0600    0.0000 H       1  UNL1        0.0618
     46 H           1.4631   -1.5600    0.0000 H       1  UNL1        0.0618
     47 H          12.9292   -1.5600    0.0000 H       1  UNL1        0.0618
@<TRIPOS>BOND
     1     1    12    2
     2     2    11    2
     3     3     4    1
     4     3     5    1
     5     3    33    1
     6     4     6    1
     7     4     9    1
     8     4    25    1
     9     5     7    1
    10     5    10    1
    11     5    26    1
    12     6     8    1
    13     6    27    1
    14     6    28    1
    15     7     8    1
    16     7    29    1
    17     7    30    1
    18     8    31    1
    19     8    32    1
    20     9    12    1
    21     9    34    1
    22     9    35    1
    23    10    11    1
    24    10    36    1
    25    10    37    1
    26    11    14    1
    27    12    13    1
    28    13    15   ar
    29    13    17   ar
    30    14    16   ar
    31    14    18   ar
    32    15    19   ar
    33    15    38    1
    34    16    20   ar
    35    16    39    1
    36    17    21   ar
    37    17    40    1
    38    18    22   ar
    39    18    41    1
    40    19    23   ar
    41    19    42    1
    42    20    24   ar
    43    20    43    1
    44    21    23   ar
    45    21    44    1
    46    22    24   ar
    47    22    45    1
    48    23    46    1
    49    24    47    1
