@<TRIPOS>MOLECULE
IMPHY007540
 44 45 0 0 0
SMALL
GASTEIGER

@<TRIPOS>ATOM
      1 O           5.8207    1.4389    0.0000 O.3     1  UNL1       -0.3879
      2 O           6.4562   -2.0696    0.0000 O.3     1  UNL1       -0.3911
      3 O           4.6208    1.7750    0.0000 O.3     1  UNL1       -0.3911
      4 C           5.1931   -0.8206    0.0000 C.3     1  UNL1        0.0052
      5 C           5.1881    0.1794    0.0000 C.3     1  UNL1        0.0225
      6 C           6.1328    0.4888    0.0000 C.3     1  UNL1        0.0765
      7 C           6.1408   -1.1206    0.0000 C.3     1  UNL1        0.0639
      8 C           6.7204   -0.3130    0.0000 C.3     1  UNL1        0.0033
      9 C           4.4032    0.7990    0.0000 C.3     1  UNL1        0.0649
     10 C           4.4144   -1.4480    0.0000 C.3     1  UNL1       -0.0263
     11 C           6.9399    1.0792    0.0000 C.3     1  UNL1       -0.0173
     12 C           5.1981   -1.8206    0.0000 C.3     1  UNL1       -0.0565
     13 C           3.4294    0.5716    0.0000 C.3     1  UNL1       -0.0055
     14 C           3.4384   -1.2303    0.0000 C.2     1  UNL1       -0.0843
     15 C           3.0000   -0.3315    0.0000 C.2     1  UNL1       -0.0741
     16 C           7.8548    0.6755    0.0000 C.3     1  UNL1       -0.0600
     17 C           6.8321    2.0734    0.0000 C.3     1  UNL1       -0.0600
     18 C           2.0000   -0.3365    0.0000 C.3     1  UNL1       -0.0437
     19 H           5.3368    1.0163    0.0000 H       1  UNL1        0.0360
     20 H           6.7538   -1.2138    0.0000 H       1  UNL1        0.0600
     21 H           7.1833   -0.7254    0.0000 H       1  UNL1        0.0318
     22 H           7.1792    0.1040    0.0000 H       1  UNL1        0.0318
     23 H           3.9626    1.2352    0.0000 H       1  UNL1        0.0600
     24 H           4.1482   -2.0079    0.0000 H       1  UNL1        0.0314
     25 H           4.9010   -1.8321    0.0000 H       1  UNL1        0.0314
     26 H           7.4403    1.4453    0.0000 H       1  UNL1        0.0323
     27 H           4.5781   -1.8237    0.0000 H       1  UNL1        0.0236
     28 H           5.2012   -2.4406    0.0000 H       1  UNL1        0.0236
     29 H           5.8181   -1.8175    0.0000 H       1  UNL1        0.0236
     30 H           3.4263    1.1916    0.0000 H       1  UNL1        0.0335
     31 H           2.8242    0.7065    0.0000 H       1  UNL1        0.0335
     32 H           3.0542   -1.7170    0.0000 H       1  UNL1        0.0572
     33 H           6.2340    1.9010    0.0000 H       1  UNL1        0.2102
     34 H           7.4485    2.1402    0.0000 H       1  UNL1        0.0233
     35 H           6.7653    2.6898    0.0000 H       1  UNL1        0.0233
     36 H           6.2157    2.0066    0.0000 H       1  UNL1        0.0233
     37 H           7.6044    0.1083    0.0000 H       1  UNL1        0.0233
     38 H           8.4220    0.4251    0.0000 H       1  UNL1        0.0233
     39 H           8.1051    1.2427    0.0000 H       1  UNL1        0.0233
     40 H           7.0635   -2.1944    0.0000 H       1  UNL1        0.2098
     41 H           4.1642    2.1944    0.0000 H       1  UNL1        0.2098
     42 H           1.9969    0.2835    0.0000 H       1  UNL1        0.0274
     43 H           1.3800   -0.3396    0.0000 H       1  UNL1        0.0274
     44 H           2.0031   -0.9565    0.0000 H       1  UNL1        0.0274
@<TRIPOS>BOND
     1     6     1    1
     2     1    33    1
     3     7     2    1
     4     2    40    1
     5     9     3    1
     6     3    41    1
     7     4     5    1
     8     4     7    1
     9     4    10    1
    10     4    12    1
    11     5     6    1
    12     5     9    1
    13     5    19    1
    14     6     8    1
    15     6    11    1
    16     7     8    1
    17     7    20    1
    18     8    21    1
    19     8    22    1
    20     9    13    1
    21     9    23    1
    22    10    14    1
    23    10    24    1
    24    10    25    1
    25    11    16    1
    26    11    17    1
    27    11    26    1
    28    12    27    1
    29    12    28    1
    30    12    29    1
    31    13    15    1
    32    13    30    1
    33    13    31    1
    34    14    15    2
    35    14    32    1
    36    15    18    1
    37    16    37    1
    38    16    38    1
    39    16    39    1
    40    17    34    1
    41    17    35    1
    42    17    36    1
    43    18    42    1
    44    18    43    1
    45    18    44    1
