@<TRIPOS>MOLECULE
IMPHY001359
 113 115 0 0 0
SMALL
GASTEIGER

@<TRIPOS>ATOM
      1 O          11.2800    3.1253    0.0000 O.3     1  UNL1       -0.3683
      2 O          13.3491    2.4530    0.0000 O.3     1  UNL1       -0.3683
      3 O           9.3120    2.4259    0.0000 O.3     1  UNL1       -0.3892
      4 O          14.5302    0.7304    0.0000 O.3     1  UNL1       -0.3892
      5 O           7.2905    5.4114    0.0000 O.3     1  UNL1       -0.3918
      6 O          27.3221   -4.2385    0.0000 O.3     1  UNL1       -0.4614
      7 O           4.2294    3.5062    0.0000 O.3     1  UNL1       -0.3918
      8 O          27.6008   -2.4784    0.0000 O.2     1  UNL1       -0.2505
      9 C          12.0890    3.7131    0.0000 C.3     1  UNL1        0.0853
     10 C          13.0401    3.4040    0.0000 C.3     1  UNL1        0.0853
     11 C          11.7800    4.6641    0.0000 C.3     1  UNL1       -0.0217
     12 C          13.8491    3.9918    0.0000 C.3     1  UNL1       -0.0217
     13 C          10.4710    3.7131    0.0000 C.3     1  UNL1        0.0850
     14 C          14.3491    2.4530    0.0000 C.3     1  UNL1        0.0850
     15 C          10.7800    4.6641    0.0000 C.3     1  UNL1       -0.0217
     16 C          14.6581    3.4040    0.0000 C.3     1  UNL1       -0.0217
     17 C           9.5200    3.4040    0.0000 C.3     1  UNL1        0.0814
     18 C          14.9369    1.6440    0.0000 C.3     1  UNL1        0.0813
     19 C           8.7768    4.0732    0.0000 C.3     1  UNL1       -0.0221
     20 C          15.9314    1.7485    0.0000 C.3     1  UNL1       -0.0244
     21 C           7.8258    3.7642    0.0000 C.3     1  UNL1       -0.0244
     22 C          16.5192    0.9395    0.0000 C.3     1  UNL1       -0.0506
     23 C           7.0826    4.4333    0.0000 C.3     1  UNL1        0.0554
     24 C          17.5137    1.0440    0.0000 C.3     1  UNL1       -0.0530
     25 C           6.1316    4.1243    0.0000 C.3     1  UNL1       -0.0245
     26 C          18.1015    0.2350    0.0000 C.3     1  UNL1       -0.0531
     27 C          19.0960    0.3395    0.0000 C.3     1  UNL1       -0.0531
     28 C           5.3884    4.7934    0.0000 C.3     1  UNL1       -0.0245
     29 C          19.6838   -0.4695    0.0000 C.3     1  UNL1       -0.0531
     30 C           4.4374    4.4844    0.0000 C.3     1  UNL1        0.0553
     31 C          26.0131   -3.2874    0.0000 C.3     1  UNL1        0.0598
     32 C          20.6783   -0.3650    0.0000 C.3     1  UNL1       -0.0531
     33 C          25.4253   -2.4784    0.0000 C.3     1  UNL1       -0.0400
     34 C          25.7040   -4.2385    0.0000 C.3     1  UNL1       -0.0030
     35 C          21.2661   -1.1740    0.0000 C.3     1  UNL1       -0.0531
     36 C          24.4307   -2.5830    0.0000 C.3     1  UNL1       -0.0523
     37 C          26.5131   -4.8263    0.0000 C.3     1  UNL1        0.1011
     38 C          23.8430   -1.7740    0.0000 C.3     1  UNL1       -0.0530
     39 C          22.2607   -1.0695    0.0000 C.3     1  UNL1       -0.0531
     40 C          22.8484   -1.8785    0.0000 C.3     1  UNL1       -0.0531
     41 C           3.6942    5.1535    0.0000 C.3     1  UNL1       -0.0271
     42 C          27.0131   -3.2874    0.0000 C.2     1  UNL1        0.3106
     43 C           2.7431    4.8445    0.0000 C.3     1  UNL1       -0.0536
     44 C          26.5131   -5.8263    0.0000 C.3     1  UNL1       -0.0277
     45 C           2.0000    5.5136    0.0000 C.3     1  UNL1       -0.0652
     46 H          12.1860    3.1007    0.0000 H       1  UNL1        0.0622
     47 H          12.9431    4.0164    0.0000 H       1  UNL1        0.0622
     48 H          12.3865    4.7930    0.0000 H       1  UNL1        0.0292
     49 H          11.7152    5.2807    0.0000 H       1  UNL1        0.0292
     50 H          14.2640    4.4526    0.0000 H       1  UNL1        0.0292
     51 H          13.4343    4.4526    0.0000 H       1  UNL1        0.0292
     52 H          10.3740    3.1007    0.0000 H       1  UNL1        0.0622
     53 H          14.0676    1.9006    0.0000 H       1  UNL1        0.0622
     54 H          10.8448    5.2807    0.0000 H       1  UNL1        0.0292
     55 H          10.1736    4.7930    0.0000 H       1  UNL1        0.0292
     56 H          15.2245    3.1519    0.0000 H       1  UNL1        0.0292
     57 H          14.9681    3.9410    0.0000 H       1  UNL1        0.0292
     58 H           8.9303    3.2124    0.0000 H       1  UNL1        0.0619
     59 H          15.3013    1.1424    0.0000 H       1  UNL1        0.0619
     60 H           9.2654    4.4549    0.0000 H       1  UNL1        0.0292
     61 H           8.4857    4.6206    0.0000 H       1  UNL1        0.0292
     62 H          16.4887    2.0203    0.0000 H       1  UNL1        0.0291
     63 H          15.7605    2.3445    0.0000 H       1  UNL1        0.0291
     64 H           7.3372    3.3824    0.0000 H       1  UNL1        0.0291
     65 H           8.1168    3.2167    0.0000 H       1  UNL1        0.0291
     66 H          15.9620    0.6677    0.0000 H       1  UNL1        0.0266
     67 H          16.6901    0.3435    0.0000 H       1  UNL1        0.0266
     68 H           8.7224    2.2343    0.0000 H       1  UNL1        0.2099
     69 H          14.8946    0.2288    0.0000 H       1  UNL1        0.2099
     70 H           6.6218    4.8482    0.0000 H       1  UNL1        0.0593
     71 H          18.0710    1.3158    0.0000 H       1  UNL1        0.0265
     72 H          17.3428    1.6400    0.0000 H       1  UNL1        0.0265
     73 H           5.6430    3.7426    0.0000 H       1  UNL1        0.0291
     74 H           6.4226    3.5768    0.0000 H       1  UNL1        0.0291
     75 H          17.5443   -0.0368    0.0000 H       1  UNL1        0.0265
     76 H          18.2724   -0.3610    0.0000 H       1  UNL1        0.0265
     77 H          19.6533    0.6113    0.0000 H       1  UNL1        0.0265
     78 H          18.9251    0.9355    0.0000 H       1  UNL1        0.0265
     79 H           5.8770    5.1751    0.0000 H       1  UNL1        0.0291
     80 H           5.0973    5.3408    0.0000 H       1  UNL1        0.0291
     81 H          19.1266   -0.7413    0.0000 H       1  UNL1        0.0265
     82 H          19.8547   -1.0655    0.0000 H       1  UNL1        0.0265
     83 H           6.8298    5.8263    0.0000 H       1  UNL1        0.2098
     84 H           3.8477    4.2928    0.0000 H       1  UNL1        0.0593
     85 H          26.2945   -2.7350    0.0000 H       1  UNL1        0.0414
     86 H          21.2356   -0.0932    0.0000 H       1  UNL1        0.0265
     87 H          20.5074    0.2310    0.0000 H       1  UNL1        0.0265
     88 H          25.9825   -2.2066    0.0000 H       1  UNL1        0.0273
     89 H          25.2544   -1.8824    0.0000 H       1  UNL1        0.0273
     90 H          25.1376   -3.9863    0.0000 H       1  UNL1        0.0309
     91 H          25.3940   -4.7754    0.0000 H       1  UNL1        0.0309
     92 H          20.7089   -1.4458    0.0000 H       1  UNL1        0.0265
     93 H          21.4370   -1.7700    0.0000 H       1  UNL1        0.0265
     94 H          23.8735   -2.8548    0.0000 H       1  UNL1        0.0265
     95 H          24.6016   -3.1790    0.0000 H       1  UNL1        0.0265
     96 H          27.0655   -5.1078    0.0000 H       1  UNL1        0.0731
     97 H          24.4002   -1.5022    0.0000 H       1  UNL1        0.0265
     98 H          23.6721   -1.1780    0.0000 H       1  UNL1        0.0265
     99 H          22.8179   -0.7977    0.0000 H       1  UNL1        0.0265
    100 H          22.0898   -0.4735    0.0000 H       1  UNL1        0.0265
    101 H          22.2912   -2.1503    0.0000 H       1  UNL1        0.0265
    102 H          23.0193   -2.4745    0.0000 H       1  UNL1        0.0265
    103 H           4.1828    5.5352    0.0000 H       1  UNL1        0.0290
    104 H           3.4031    5.7009    0.0000 H       1  UNL1        0.0290
    105 H           2.2546    4.4628    0.0000 H       1  UNL1        0.0263
    106 H           3.0342    4.2971    0.0000 H       1  UNL1        0.0263
    107 H          25.8930   -5.8263    0.0000 H       1  UNL1        0.0265
    108 H          26.5131   -6.4463    0.0000 H       1  UNL1        0.0265
    109 H          27.1331   -5.8263    0.0000 H       1  UNL1        0.0265
    110 H           3.6398    3.3146    0.0000 H       1  UNL1        0.2098
    111 H           2.4149    5.9744    0.0000 H       1  UNL1        0.0230
    112 H           1.5392    5.9285    0.0000 H       1  UNL1        0.0230
    113 H           1.5851    5.0529    0.0000 H       1  UNL1        0.0230
@<TRIPOS>BOND
     1     1     9    1
     2     1    13    1
     3     2    10    1
     4     2    14    1
     5     3    17    1
     6     3    68    1
     7     4    18    1
     8     4    69    1
     9     5    23    1
    10     5    83    1
    11     6    37    1
    12     6    42    1
    13     7    30    1
    14     7   110    1
    15     8    42    2
    16     9    10    1
    17     9    11    1
    18     9    46    1
    19    10    12    1
    20    10    47    1
    21    11    15    1
    22    11    48    1
    23    11    49    1
    24    12    16    1
    25    12    50    1
    26    12    51    1
    27    13    15    1
    28    13    17    1
    29    13    52    1
    30    14    16    1
    31    14    18    1
    32    14    53    1
    33    15    54    1
    34    15    55    1
    35    16    56    1
    36    16    57    1
    37    17    19    1
    38    17    58    1
    39    18    20    1
    40    18    59    1
    41    19    21    1
    42    19    60    1
    43    19    61    1
    44    20    22    1
    45    20    62    1
    46    20    63    1
    47    21    23    1
    48    21    64    1
    49    21    65    1
    50    22    24    1
    51    22    66    1
    52    22    67    1
    53    23    25    1
    54    23    70    1
    55    24    26    1
    56    24    71    1
    57    24    72    1
    58    25    28    1
    59    25    73    1
    60    25    74    1
    61    26    27    1
    62    26    75    1
    63    26    76    1
    64    27    29    1
    65    27    77    1
    66    27    78    1
    67    28    30    1
    68    28    79    1
    69    28    80    1
    70    29    32    1
    71    29    81    1
    72    29    82    1
    73    30    41    1
    74    30    84    1
    75    31    33    1
    76    31    34    1
    77    31    42    1
    78    31    85    1
    79    32    35    1
    80    32    86    1
    81    32    87    1
    82    33    36    1
    83    33    88    1
    84    33    89    1
    85    34    37    1
    86    34    90    1
    87    34    91    1
    88    35    39    1
    89    35    92    1
    90    35    93    1
    91    36    38    1
    92    36    94    1
    93    36    95    1
    94    37    44    1
    95    37    96    1
    96    38    40    1
    97    38    97    1
    98    38    98    1
    99    39    40    1
   100    39    99    1
   101    39   100    1
   102    40   101    1
   103    40   102    1
   104    41    43    1
   105    41   103    1
   106    41   104    1
   107    43    45    1
   108    43   105    1
   109    43   106    1
   110    44   107    1
   111    44   108    1
   112    44   109    1
   113    45   111    1
   114    45   112    1
   115    45   113    1
