@<TRIPOS>MOLECULE
IMPHY003205
 198 208 0 0 0
SMALL
GASTEIGER

@<TRIPOS>ATOM
      1 O          11.1384   -0.8922    0.0000 O.3     1  UNL1       -0.3448
      2 O          10.2549    2.4248    0.0000 O.3     1  UNL1       -0.3944
      3 O           3.9791    5.2663    0.0000 O.3     1  UNL1       -0.4802
      4 O           5.7110    5.2864    0.0000 O.2     1  UNL1       -0.2504
      5 O          12.0044    0.6078    0.0000 O.3     1  UNL1       -0.3460
      6 O          12.8705   -1.8922    0.0000 O.3     1  UNL1       -0.3378
      7 O          14.6025   -0.8922    0.0000 O.3     1  UNL1       -0.3400
      8 O          14.6025    1.1078    0.0000 O.3     1  UNL1       -0.3405
      9 O          11.1384   -1.8922    0.0000 O.3     1  UNL1       -0.3431
     10 O          15.4685    0.6078    0.0000 O.3     1  UNL1       -0.3405
     11 O          15.4685    2.6078    0.0000 O.3     1  UNL1       -0.3431
     12 O          12.8705   -3.8922    0.0000 O.3     1  UNL1       -0.3841
     13 O          16.3346   -1.8922    0.0000 O.3     1  UNL1       -0.3377
     14 O          11.1384   -4.8922    0.0000 O.3     1  UNL1       -0.3864
     15 O          18.0666   -0.8922    0.0000 O.3     1  UNL1       -0.3401
     16 O           9.4064   -3.8922    0.0000 O.3     1  UNL1       -0.3866
     17 O          12.8705    2.1078    0.0000 O.3     1  UNL1       -0.3841
     18 O          18.0666    1.1078    0.0000 O.3     1  UNL1       -0.3865
     19 O          12.8705    4.1078    0.0000 O.3     1  UNL1       -0.3864
     20 O          14.6025    5.1078    0.0000 O.3     1  UNL1       -0.3866
     21 O          17.6614   -3.0056    0.0000 O.3     1  UNL1       -0.3405
     22 O          17.2006    2.6078    0.0000 O.3     1  UNL1       -0.3924
     23 O          18.9326    0.6078    0.0000 O.3     1  UNL1       -0.3461
     24 O          15.0491   -3.4244    0.0000 O.3     1  UNL1       -0.3841
     25 O          15.7330   -5.3037    0.0000 O.3     1  UNL1       -0.3864
     26 O          19.7987   -1.8922    0.0000 O.3     1  UNL1       -0.3841
     27 O          17.7027   -5.6510    0.0000 O.3     1  UNL1       -0.3865
     28 O          21.5307   -0.8922    0.0000 O.3     1  UNL1       -0.3864
     29 O          21.5307    1.1078    0.0000 O.3     1  UNL1       -0.3869
     30 O          19.3302   -5.0586    0.0000 O.3     1  UNL1       -0.3924
     31 C           7.5184    2.2382    0.0000 C.3     1  UNL1       -0.0194
     32 C           7.5223    1.2382    0.0000 C.3     1  UNL1       -0.0257
     33 C           8.4183    0.7070    0.0000 C.3     1  UNL1       -0.0249
     34 C           6.6505    2.7349    0.0000 C.3     1  UNL1       -0.0051
     35 C           9.3224    1.2244    0.0000 C.3     1  UNL1       -0.0255
     36 C           8.4103    2.7763    0.0000 C.3     1  UNL1       -0.0463
     37 C          10.2682    0.6928    0.0000 C.3     1  UNL1        0.0206
     38 C           9.3184    2.2660    0.0000 C.3     1  UNL1       -0.0485
     39 C           5.7864    2.2316    0.0000 C.2     1  UNL1       -0.0629
     40 C           8.3974   -0.3778    0.0000 C.3     1  UNL1       -0.0447
     41 C           6.6582    0.7349    0.0000 C.3     1  UNL1       -0.0306
     42 C           4.8745    2.7349    0.0000 C.3     1  UNL1       -0.0031
     43 C           6.6625    3.7765    0.0000 C.3     1  UNL1       -0.0424
     44 C           4.8624    3.7765    0.0000 C.3     1  UNL1        0.0741
     45 C          10.2724   -0.3922    0.0000 C.3     1  UNL1        0.0695
     46 C           7.8568    3.1792    0.0000 C.3     1  UNL1       -0.0585
     47 C           5.7625    4.3007    0.0000 C.3     1  UNL1       -0.0359
     48 C           7.5503    0.2104    0.0000 C.3     1  UNL1       -0.0590
     49 C           9.3307   -0.9311    0.0000 C.3     1  UNL1       -0.0254
     50 C           5.7902    1.2316    0.0000 C.2     1  UNL1       -0.0836
     51 C           7.2903    3.5034    0.0000 C.3     1  UNL1       -0.0553
     52 C           3.9498    2.1672    0.0000 C.3     1  UNL1       -0.0403
     53 C           3.9249    4.3226    0.0000 C.3     1  UNL1       -0.0362
     54 C           2.9999    2.6915    0.0000 C.3     1  UNL1       -0.0343
     55 C          10.7615    1.5626    0.0000 C.3     1  UNL1        0.0522
     56 C          11.2682    0.7005    0.0000 C.3     1  UNL1       -0.0548
     57 C           2.9873    3.7765    0.0000 C.3     1  UNL1       -0.0468
     58 C           4.8508    4.7764    0.0000 C.2     1  UNL1        0.3115
     59 C           2.0000    2.6761    0.0000 C.3     1  UNL1       -0.0598
     60 C           2.5133    1.8179    0.0000 C.3     1  UNL1       -0.0598
     61 C          12.0044   -0.3922    0.0000 C.3     1  UNL1        0.1882
     62 C          12.8705   -0.8922    0.0000 C.3     1  UNL1        0.1410
     63 C          13.7365   -0.3922    0.0000 C.3     1  UNL1        0.1210
     64 C          13.7365    0.6078    0.0000 C.3     1  UNL1        0.1138
     65 C          12.8705    1.1078    0.0000 C.3     1  UNL1        0.0796
     66 C          12.0044   -2.3922    0.0000 C.3     1  UNL1        0.1884
     67 C          15.4685   -0.3922    0.0000 C.3     1  UNL1        0.1888
     68 C          12.0044   -3.3922    0.0000 C.3     1  UNL1        0.1341
     69 C          14.6025    2.1078    0.0000 C.3     1  UNL1        0.1883
     70 C          16.3346   -0.8922    0.0000 C.3     1  UNL1        0.1410
     71 C          11.1384   -3.8922    0.0000 C.3     1  UNL1        0.1140
     72 C          10.2724   -2.3922    0.0000 C.3     1  UNL1        0.0873
     73 C          10.2724   -3.3922    0.0000 C.3     1  UNL1        0.1095
     74 C          13.7365    2.6078    0.0000 C.3     1  UNL1        0.1341
     75 C          17.2006   -0.3922    0.0000 C.3     1  UNL1        0.1209
     76 C          16.3346    1.1078    0.0000 C.3     1  UNL1        0.1130
     77 C          17.2006    0.6078    0.0000 C.3     1  UNL1        0.1123
     78 C          13.7365    3.6078    0.0000 C.3     1  UNL1        0.1140
     79 C          15.4685    3.6078    0.0000 C.3     1  UNL1        0.0873
     80 C           9.4064   -1.8922    0.0000 C.3     1  UNL1       -0.0361
     81 C          14.6025    4.1078    0.0000 C.3     1  UNL1        0.1095
     82 C          16.3346    2.1078    0.0000 C.3     1  UNL1        0.0730
     83 C          16.6766   -2.8319    0.0000 C.3     1  UNL1        0.1885
     84 C          16.3346    4.1078    0.0000 C.3     1  UNL1       -0.0361
     85 C          18.9326   -0.3922    0.0000 C.3     1  UNL1        0.1880
     86 C          16.0338   -3.5980    0.0000 C.3     1  UNL1        0.1341
     87 C          16.3758   -4.5376    0.0000 C.3     1  UNL1        0.1141
     88 C          19.7987   -0.8922    0.0000 C.3     1  UNL1        0.1341
     89 C          18.0034   -3.9452    0.0000 C.3     1  UNL1        0.1130
     90 C          17.3606   -4.7113    0.0000 C.3     1  UNL1        0.1119
     91 C          20.6647   -0.3922    0.0000 C.3     1  UNL1        0.1137
     92 C          19.7987    1.1078    0.0000 C.3     1  UNL1        0.0792
     93 C          20.6647    0.6078    0.0000 C.3     1  UNL1        0.1069
     94 C          18.9882   -4.1189    0.0000 C.3     1  UNL1        0.0730
     95 H           8.2600    1.6604    0.0000 H       1  UNL1        0.0315
     96 H          10.0552    1.6550    0.0000 H       1  UNL1        0.0313
     97 H           8.8021    3.2569    0.0000 H       1  UNL1        0.0271
     98 H           8.0039    3.2446    0.0000 H       1  UNL1        0.0271
     99 H           9.9296    2.1622    0.0000 H       1  UNL1        0.0268
    100 H           9.5252    2.8505    0.0000 H       1  UNL1        0.0268
    101 H           7.7887   -0.2599    0.0000 H       1  UNL1        0.0271
    102 H           8.1771   -0.9573    0.0000 H       1  UNL1        0.0271
    103 H           6.2615    0.2584    0.0000 H       1  UNL1        0.0310
    104 H           7.0586    0.2615    0.0000 H       1  UNL1        0.0310
    105 H           4.8941    1.8851    0.0000 H       1  UNL1        0.0357
    106 H           7.2721    3.6633    0.0000 H       1  UNL1        0.0274
    107 H           6.8783    4.3577    0.0000 H       1  UNL1        0.0274
    108 H          10.2712   -1.0122    0.0000 H       1  UNL1        0.0603
    109 H           8.4402    2.9694    0.0000 H       1  UNL1        0.0235
    110 H           8.0666    3.7627    0.0000 H       1  UNL1        0.0235
    111 H           7.2734    3.3890    0.0000 H       1  UNL1        0.0235
    112 H           6.1616    4.7752    0.0000 H       1  UNL1        0.0276
    113 H           5.3633    4.7752    0.0000 H       1  UNL1        0.0276
    114 H           7.2424    0.7485    0.0000 H       1  UNL1        0.0235
    115 H           7.0122   -0.0976    0.0000 H       1  UNL1        0.0235
    116 H           7.8583   -0.3278    0.0000 H       1  UNL1        0.0235
    117 H           8.9279   -1.4024    0.0000 H       1  UNL1        0.0290
    118 H           9.7261   -1.4086    0.0000 H       1  UNL1        0.0290
    119 H           5.2545    0.9195    0.0000 H       1  UNL1        0.0572
    120 H           7.7668    3.1067    0.0000 H       1  UNL1        0.0238
    121 H           7.6870    3.9799    0.0000 H       1  UNL1        0.0238
    122 H           6.8138    3.9001    0.0000 H       1  UNL1        0.0238
    123 H           3.5617    1.6837    0.0000 H       1  UNL1        0.0276
    124 H           4.3598    1.7022    0.0000 H       1  UNL1        0.0276
    125 H           4.3240    4.7970    0.0000 H       1  UNL1        0.0276
    126 H           3.5257    4.7970    0.0000 H       1  UNL1        0.0276
    127 H          11.2395    1.1678    0.0000 H       1  UNL1        0.0563
    128 H          11.2334    1.9648    0.0000 H       1  UNL1        0.0563
    129 H          11.2730    0.0805    0.0000 H       1  UNL1        0.0237
    130 H          11.8882    0.7053    0.0000 H       1  UNL1        0.0237
    131 H          11.2634    1.3205    0.0000 H       1  UNL1        0.0237
    132 H           2.7715    4.3577    0.0000 H       1  UNL1        0.0271
    133 H           2.3777    3.6633    0.0000 H       1  UNL1        0.0271
    134 H           1.9904    3.2960    0.0000 H       1  UNL1        0.0235
    135 H           1.3801    2.6666    0.0000 H       1  UNL1        0.0235
    136 H           2.0096    2.0562    0.0000 H       1  UNL1        0.0235
    137 H           1.9716    2.1196    0.0000 H       1  UNL1        0.0235
    138 H           2.2116    1.2763    0.0000 H       1  UNL1        0.0235
    139 H           3.0549    1.5162    0.0000 H       1  UNL1        0.0235
    140 H          11.4675   -0.0822    0.0000 H       1  UNL1        0.0937
    141 H          10.5607    2.9641    0.0000 H       1  UNL1        0.2094
    142 H           3.9719    5.8863    0.0000 H       1  UNL1        0.2951
    143 H          13.4074   -1.2022    0.0000 H       1  UNL1        0.0675
    144 H          14.2734   -0.0822    0.0000 H       1  UNL1        0.0651
    145 H          13.7365    1.2278    0.0000 H       1  UNL1        0.0647
    146 H          13.2690    1.5827    0.0000 H       1  UNL1        0.0587
    147 H          12.4719    1.5827    0.0000 H       1  UNL1        0.0587
    148 H          12.5414   -2.7022    0.0000 H       1  UNL1        0.0938
    149 H          15.4685   -1.0122    0.0000 H       1  UNL1        0.0938
    150 H          12.0044   -4.0122    0.0000 H       1  UNL1        0.0671
    151 H          14.0656    1.7978    0.0000 H       1  UNL1        0.0938
    152 H          16.8715   -1.2022    0.0000 H       1  UNL1        0.0675
    153 H          10.6015   -4.2022    0.0000 H       1  UNL1        0.0648
    154 H          10.2724   -1.7722    0.0000 H       1  UNL1        0.0621
    155 H           9.7355   -3.0822    0.0000 H       1  UNL1        0.0646
    156 H          13.1996    2.9178    0.0000 H       1  UNL1        0.0671
    157 H          17.7375   -0.0822    0.0000 H       1  UNL1        0.0651
    158 H          15.7976    1.4178    0.0000 H       1  UNL1        0.0647
    159 H          17.2006    1.2278    0.0000 H       1  UNL1        0.0647
    160 H          12.8705   -4.5122    0.0000 H       1  UNL1        0.2101
    161 H          13.7365    4.2278    0.0000 H       1  UNL1        0.0648
    162 H          16.0055    3.2978    0.0000 H       1  UNL1        0.0621
    163 H           9.7164   -1.3553    0.0000 H       1  UNL1        0.0255
    164 H           8.8694   -1.5822    0.0000 H       1  UNL1        0.0255
    165 H           9.0964   -2.4292    0.0000 H       1  UNL1        0.0255
    166 H          15.1395    4.4178    0.0000 H       1  UNL1        0.0646
    167 H          10.6015   -5.2022    0.0000 H       1  UNL1        0.2100
    168 H          16.1225    2.6904    0.0000 H       1  UNL1        0.0584
    169 H          15.7240    2.0001    0.0000 H       1  UNL1        0.0584
    170 H           8.8694   -3.5822    0.0000 H       1  UNL1        0.2100
    171 H          12.3335    2.4178    0.0000 H       1  UNL1        0.2101
    172 H          16.0660   -2.7242    0.0000 H       1  UNL1        0.0938
    173 H          16.6446    3.5708    0.0000 H       1  UNL1        0.0255
    174 H          16.8715    4.4178    0.0000 H       1  UNL1        0.0255
    175 H          16.0246    4.6447    0.0000 H       1  UNL1        0.0255
    176 H          18.0666    1.7278    0.0000 H       1  UNL1        0.2100
    177 H          12.8705    4.7278    0.0000 H       1  UNL1        0.2100
    178 H          18.9326   -1.0122    0.0000 H       1  UNL1        0.0937
    179 H          16.4052   -3.0154    0.0000 H       1  UNL1        0.0671
    180 H          15.1395    5.4178    0.0000 H       1  UNL1        0.2100
    181 H          17.2006    3.2278    0.0000 H       1  UNL1        0.2095
    182 H          16.5879   -5.1203    0.0000 H       1  UNL1        0.0648
    183 H          20.3356   -1.2022    0.0000 H       1  UNL1        0.0671
    184 H          18.4019   -3.4703    0.0000 H       1  UNL1        0.0647
    185 H          17.9712   -4.8190    0.0000 H       1  UNL1        0.0647
    186 H          21.2016   -0.0822    0.0000 H       1  UNL1        0.0647
    187 H          14.6505   -3.8993    0.0000 H       1  UNL1        0.2101
    188 H          20.1972    1.5827    0.0000 H       1  UNL1        0.0587
    189 H          19.4001    1.5827    0.0000 H       1  UNL1        0.0587
    190 H          20.6647    1.2278    0.0000 H       1  UNL1        0.0643
    191 H          19.5988   -4.0112    0.0000 H       1  UNL1        0.0584
    192 H          18.9882   -3.4989    0.0000 H       1  UNL1        0.0584
    193 H          15.9451   -5.8863    0.0000 H       1  UNL1        0.2100
    194 H          20.3356   -2.2022    0.0000 H       1  UNL1        0.2101
    195 H          18.3132   -5.7586    0.0000 H       1  UNL1        0.2100
    196 H          22.0677   -0.5822    0.0000 H       1  UNL1        0.2100
    197 H          21.5307    1.7278    0.0000 H       1  UNL1        0.2100
    198 H          19.9408   -5.1662    0.0000 H       1  UNL1        0.2095
@<TRIPOS>BOND
     1    45     1    1
     2    61     1    1
     3     2    55    1
     4     2   141    1
     5     3    58    1
     6     3   142    1
     7     4    58    2
     8     5    61    1
     9     5    65    1
    10    62     6    1
    11    66     6    1
    12    63     7    1
    13    67     7    1
    14    64     8    1
    15    69     8    1
    16     9    66    1
    17     9    72    1
    18    10    67    1
    19    10    76    1
    20    11    69    1
    21    11    79    1
    22    68    12    1
    23    12   160    1
    24    70    13    1
    25    83    13    1
    26    71    14    1
    27    14   167    1
    28    75    15    1
    29    85    15    1
    30    73    16    1
    31    16   170    1
    32    74    17    1
    33    17   171    1
    34    77    18    1
    35    18   176    1
    36    78    19    1
    37    19   177    1
    38    81    20    1
    39    20   180    1
    40    21    83    1
    41    21    89    1
    42    22    82    1
    43    22   181    1
    44    23    85    1
    45    23    92    1
    46    86    24    1
    47    24   187    1
    48    87    25    1
    49    25   193    1
    50    88    26    1
    51    26   194    1
    52    90    27    1
    53    27   195    1
    54    91    28    1
    55    28   196    1
    56    93    29    1
    57    29   197    1
    58    30    94    1
    59    30   198    1
    60    31    32    1
    61    31    34    1
    62    31    36    1
    63    31    46    1
    64    32    33    1
    65    32    41    1
    66    32    95    1
    67    33    35    1
    68    33    40    1
    69    33    48    1
    70    34    39    1
    71    34    43    1
    72    34    51    1
    73    35    37    1
    74    35    38    1
    75    35    96    1
    76    36    38    1
    77    36    97    1
    78    36    98    1
    79    37    45    1
    80    37    55    1
    81    37    56    1
    82    38    99    1
    83    38   100    1
    84    39    42    1
    85    39    50    2
    86    40    49    1
    87    40   101    1
    88    40   102    1
    89    41    50    1
    90    41   103    1
    91    41   104    1
    92    42    44    1
    93    42    52    1
    94    42   105    1
    95    43    47    1
    96    43   106    1
    97    43   107    1
    98    44    47    1
    99    44    53    1
   100    44    58    1
   101    45    49    1
   102    45   108    1
   103    46   109    1
   104    46   110    1
   105    46   111    1
   106    47   112    1
   107    47   113    1
   108    48   114    1
   109    48   115    1
   110    48   116    1
   111    49   117    1
   112    49   118    1
   113    50   119    1
   114    51   120    1
   115    51   121    1
   116    51   122    1
   117    52    54    1
   118    52   123    1
   119    52   124    1
   120    53    57    1
   121    53   125    1
   122    53   126    1
   123    54    57    1
   124    54    59    1
   125    54    60    1
   126    55   127    1
   127    55   128    1
   128    56   129    1
   129    56   130    1
   130    56   131    1
   131    57   132    1
   132    57   133    1
   133    59   134    1
   134    59   135    1
   135    59   136    1
   136    60   137    1
   137    60   138    1
   138    60   139    1
   139    61    62    1
   140    61   140    1
   141    62    63    1
   142    62   143    1
   143    63    64    1
   144    63   144    1
   145    64    65    1
   146    64   145    1
   147    65   146    1
   148    65   147    1
   149    66    68    1
   150    66   148    1
   151    67    70    1
   152    67   149    1
   153    68    71    1
   154    68   150    1
   155    69    74    1
   156    69   151    1
   157    70    75    1
   158    70   152    1
   159    71    73    1
   160    71   153    1
   161    72    73    1
   162    72    80    1
   163    72   154    1
   164    73   155    1
   165    74    78    1
   166    74   156    1
   167    75    77    1
   168    75   157    1
   169    76    77    1
   170    76    82    1
   171    76   158    1
   172    77   159    1
   173    78    81    1
   174    78   161    1
   175    79    81    1
   176    79    84    1
   177    79   162    1
   178    80   163    1
   179    80   164    1
   180    80   165    1
   181    81   166    1
   182    82   168    1
   183    82   169    1
   184    83    86    1
   185    83   172    1
   186    84   173    1
   187    84   174    1
   188    84   175    1
   189    85    88    1
   190    85   178    1
   191    86    87    1
   192    86   179    1
   193    87    90    1
   194    87   182    1
   195    88    91    1
   196    88   183    1
   197    89    90    1
   198    89    94    1
   199    89   184    1
   200    90   185    1
   201    91    93    1
   202    91   186    1
   203    92    93    1
   204    92   188    1
   205    92   189    1
   206    93   190    1
   207    94   191    1
   208    94   192    1
