@<TRIPOS>MOLECULE
IMPHY017872
 39 40 0 0 0
SMALL
GASTEIGER

@<TRIPOS>ATOM
      1 C           5.4641   -0.7673    0.0000 C.3     1  UNL1       -0.0071
      2 C           4.5981   -1.2673    0.0000 C.3     1  UNL1       -0.0431
      3 C           3.7320    0.2327    0.0000 C.3     1  UNL1       -0.0200
      4 C           5.4641    0.2327    0.0000 C.2     1  UNL1       -0.0425
      5 C           6.3580   -1.3020    0.0000 C.3     1  UNL1       -0.0433
      6 C           3.7320   -0.7673    0.0000 C.3     1  UNL1       -0.0457
      7 C           4.5981    0.7327    0.0000 C.2     1  UNL1       -0.0767
      8 C           7.2641   -0.7881    0.0000 C.3     1  UNL1       -0.0483
      9 C           5.4641   -1.7673    0.0000 C.3     1  UNL1       -0.0555
     10 C           2.8660    0.7327    0.0000 C.3     1  UNL1       -0.0404
     11 C           6.3580    0.7674    0.0000 C.2     1  UNL1       -0.0510
     12 C           7.2641    0.2535    0.0000 C.3     1  UNL1       -0.0279
     13 C           2.0000    0.2327    0.0000 C.3     1  UNL1       -0.0621
     14 C           2.8660    1.7327    0.0000 C.3     1  UNL1       -0.0621
     15 C           6.3465    1.7673    0.0000 C.2     1  UNL1       -0.0952
     16 H           4.1996   -1.7422    0.0000 H       1  UNL1        0.0274
     17 H           4.9966   -1.7422    0.0000 H       1  UNL1        0.0274
     18 H           4.2690   -0.0773    0.0000 H       1  UNL1        0.0346
     19 H           5.9534   -1.7718    0.0000 H       1  UNL1        0.0274
     20 H           6.7517   -1.7810    0.0000 H       1  UNL1        0.0274
     21 H           3.1215   -0.6596    0.0000 H       1  UNL1        0.0271
     22 H           3.5200   -1.3499    0.0000 H       1  UNL1        0.0271
     23 H           4.5981    1.3527    0.0000 H       1  UNL1        0.0578
     24 H           7.4732   -1.3718    0.0000 H       1  UNL1        0.0269
     25 H           7.8750   -0.6820    0.0000 H       1  UNL1        0.0269
     26 H           4.8441   -1.7673    0.0000 H       1  UNL1        0.0238
     27 H           5.4641   -2.3873    0.0000 H       1  UNL1        0.0238
     28 H           6.0841   -1.7673    0.0000 H       1  UNL1        0.0238
     29 H           2.8660    0.1127    0.0000 H       1  UNL1        0.0301
     30 H           7.8750    0.1474    0.0000 H       1  UNL1        0.0313
     31 H           7.4732    0.8372    0.0000 H       1  UNL1        0.0313
     32 H           1.6900    0.7696    0.0000 H       1  UNL1        0.0233
     33 H           1.4631   -0.0773    0.0000 H       1  UNL1        0.0233
     34 H           2.3100   -0.3042    0.0000 H       1  UNL1        0.0233
     35 H           3.4860    1.7327    0.0000 H       1  UNL1        0.0233
     36 H           2.8660    2.3527    0.0000 H       1  UNL1        0.0233
     37 H           2.2460    1.7327    0.0000 H       1  UNL1        0.0233
     38 H           6.8798    2.0835    0.0000 H       1  UNL1        0.0538
     39 H           5.8060    2.0711    0.0000 H       1  UNL1        0.0538
@<TRIPOS>BOND
     1     1     2    1
     2     1     4    1
     3     1     5    1
     4     1     9    1
     5     2     6    1
     6     2    16    1
     7     2    17    1
     8     3     6    1
     9     3     7    1
    10     3    10    1
    11     3    18    1
    12     4     7    2
    13     4    11    1
    14     5     8    1
    15     5    19    1
    16     5    20    1
    17     6    21    1
    18     6    22    1
    19     7    23    1
    20     8    12    1
    21     8    24    1
    22     8    25    1
    23     9    26    1
    24     9    27    1
    25     9    28    1
    26    10    13    1
    27    10    14    1
    28    10    29    1
    29    11    12    1
    30    11    15    2
    31    12    30    1
    32    12    31    1
    33    13    32    1
    34    13    33    1
    35    13    34    1
    36    14    35    1
    37    14    36    1
    38    14    37    1
    39    15    38    1
    40    15    39    1
