@<TRIPOS>MOLECULE
IMPHY000492
 23 25 0 0 0
SMALL
GASTEIGER

@<TRIPOS>ATOM
      1 C           0.0067    0.2124    0.0000 C.3     1  UNL1        0.0827
      2 C          -0.7199   -0.2013    0.0000 C.3     1  UNL1        0.0111
      3 C           0.7333   -0.2013    0.0000 C.3     1  UNL1        0.1019
      4 C           0.0067    1.0396    0.0000 C.2     1  UNL1        0.1552
      5 C          -0.7199   -1.0263    0.0000 C.3     1  UNL1        0.0310
      6 C          -1.4465    0.2124    0.0000 C.3     1  UNL1        0.0006
      7 C          -0.7199    0.5522    0.0000 C.3     1  UNL1        0.0006
      8 C           0.7333   -1.0263    0.0000 C.3     1  UNL1        0.0605
      9 O           1.4600    0.2124    0.0000 O.3     1  UNL1       -0.3583
     10 C           1.4354   -0.5008    0.0000 C.3     1  UNL1        0.0302
     11 C           0.7333    1.4533    0.0000 C.3     1  UNL1        0.0959
     12 O          -0.7087    1.4421    0.0000 O.2     1  UNL1       -0.2959
     13 C           0.0067   -1.4399    0.0000 C.3     1  UNL1        0.1543
     14 C          -1.4465   -1.4399    0.0000 C.3     1  UNL1        0.0024
     15 C          -2.1732   -0.2013    0.0000 C.3     1  UNL1        0.0000
     16 C           1.4600    1.0396    0.0000 C.3     1  UNL1        0.1180
     17 O           0.0067   -2.2559    0.0000 O.3     1  UNL1       -0.2231
     18 C          -2.1732   -1.0263    0.0000 C.3     1  UNL1        0.0001
     19 C          -2.0994   -1.8043    0.0000 C.3     1  UNL1        0.0001
     20 C          -1.4465   -2.2559    0.0000 C.3     1  UNL1        0.0001
     21 C           2.1732    1.4421    0.0000 C.2     1  UNL1        0.0006
     22 C           1.4600    1.8423    0.0000 C.3     1  UNL1        0.0346
     23 C           2.1732    2.2559    0.0000 C.2     1  UNL1       -0.0025
@<TRIPOS>BOND
     1     1     2    1
     2     1     3    1
     3     1     4    1
     4     2     5    1
     5     2     6    1
     6     2     7    1
     7     3     8    1
     8     3     9    1
     9     3    10    1
    10     4    11    1
    11     4    12    2
    12     5    13    1
    13     5    14    1
    14     6    15    1
    15     8    13    1
    16     9    16    1
    17    11    16    1
    18    13    17    1
    19    14    18    1
    20    14    19    1
    21    14    20    1
    22    15    18    1
    23    16    21    1
    24    16    22    1
    25    21    23    2
