@<TRIPOS>MOLECULE
IMPHY006804
 51 54 0 0 0
SMALL
GASTEIGER

@<TRIPOS>ATOM
      1 O           9.3816    1.5249    0.0000 O.3     1  UNL1       -0.4810
      2 O           2.4170    1.5125    0.0000 O.3     1  UNL1       -0.5067
      3 N           5.9065    0.6083    0.0000 N.ar    1  UNL1       -0.3535
      4 C           9.7112    0.5367    0.0000 C.3     1  UNL1        0.1266
      5 C          10.4569   -0.1295    0.0000 C.3     1  UNL1       -0.0060
      6 C           7.6904    0.9826    0.0000 C.ar    1  UNL1        0.0407
      7 C           8.3596    1.7257    0.0000 C.ar    1  UNL1        0.1337
      8 C           6.7123    1.1905    0.0000 C.ar    1  UNL1        0.0582
      9 C           9.0142   -0.2373    0.0000 C.2     1  UNL1       -0.0406
     10 C           6.4033    2.1415    0.0000 C.ar    1  UNL1        0.0085
     11 C          10.6610    0.8494    0.0000 C.3     1  UNL1       -0.0212
     12 C           7.9970   -0.0129    0.0000 C.2     1  UNL1       -0.0493
     13 C           8.0505    2.6768    0.0000 C.ar    1  UNL1       -0.0075
     14 C          10.2527   -1.1085    0.0000 C.3     1  UNL1       -0.0306
     15 C           5.4092    2.1390    0.0000 C.ar    1  UNL1        0.0077
     16 C           7.0724    2.8847    0.0000 C.ar    1  UNL1       -0.0456
     17 C           5.1028    1.1933    0.0000 C.ar    1  UNL1        0.0510
     18 C           8.7197    3.4199    0.0000 C.3     1  UNL1       -0.0362
     19 C           4.7276    2.9185    0.0000 C.ar    1  UNL1       -0.0486
     20 C          10.9984   -1.7747    0.0000 C.2     1  UNL1       -0.0851
     21 C           4.0936    0.9615    0.0000 C.ar    1  UNL1        0.0038
     22 C           3.7133    2.7101    0.0000 C.ar    1  UNL1       -0.0195
     23 C           3.3942    1.7250    0.0000 C.ar    1  UNL1        0.1188
     24 C          10.7943   -2.7537    0.0000 C.2     1  UNL1       -0.0796
     25 C          11.5400   -3.4199    0.0000 C.3     1  UNL1       -0.0440
     26 C           9.8444   -3.0663    0.0000 C.3     1  UNL1       -0.0440
     27 H          11.0326   -0.3596    0.0000 H       1  UNL1        0.0310
     28 H          10.7834    0.3975    0.0000 H       1  UNL1        0.0310
     29 H           9.2035   -0.8277    0.0000 H       1  UNL1        0.0611
     30 H          10.8549    0.2605    0.0000 H       1  UNL1        0.0271
     31 H          11.2499    1.0433    0.0000 H       1  UNL1        0.0271
     32 H          10.4671    1.4383    0.0000 H       1  UNL1        0.0271
     33 H           7.5768   -0.4688    0.0000 H       1  UNL1        0.0623
     34 H           9.6770   -0.8784    0.0000 H       1  UNL1        0.0309
     35 H           9.9262   -1.6355    0.0000 H       1  UNL1        0.0309
     36 H           6.8808    3.4743    0.0000 H       1  UNL1        0.0628
     37 H           5.9055   -0.0117    0.0000 H       1  UNL1        0.1659
     38 H           9.1804    3.0051    0.0000 H       1  UNL1        0.0279
     39 H           9.1345    3.8807    0.0000 H       1  UNL1        0.0279
     40 H           8.2589    3.8348    0.0000 H       1  UNL1        0.0279
     41 H           4.9255    3.5060    0.0000 H       1  UNL1        0.0625
     42 H          11.5874   -1.5809    0.0000 H       1  UNL1        0.0571
     43 H           3.9094    0.3695    0.0000 H       1  UNL1        0.0675
     44 H           3.2998    3.1721    0.0000 H       1  UNL1        0.0654
     45 H          11.1269   -3.8823    0.0000 H       1  UNL1        0.0274
     46 H          12.0024   -3.8330    0.0000 H       1  UNL1        0.0274
     47 H          11.9531   -2.9576    0.0000 H       1  UNL1        0.0274
     48 H           9.6506   -2.4774    0.0000 H       1  UNL1        0.0274
     49 H           9.2555   -3.2602    0.0000 H       1  UNL1        0.0274
     50 H          10.0383   -3.6552    0.0000 H       1  UNL1        0.0274
     51 H           2.0000    1.9713    0.0000 H       1  UNL1        0.2921
@<TRIPOS>BOND
     1     1     4    1
     2     1     7    1
     3     2    23    1
     4     2    51    1
     5     3     8   ar
     6     3    17   ar
     7     3    37    1
     8     4     5    1
     9     4     9    1
    10     4    11    1
    11     5    14    1
    12     5    27    1
    13     5    28    1
    14     6     7   ar
    15     6     8   ar
    16     6    12    1
    17     7    13   ar
    18     8    10   ar
    19     9    12    2
    20     9    29    1
    21    10    15   ar
    22    10    16   ar
    23    11    30    1
    24    11    31    1
    25    11    32    1
    26    12    33    1
    27    13    16   ar
    28    13    18    1
    29    14    20    1
    30    14    34    1
    31    14    35    1
    32    15    17   ar
    33    15    19   ar
    34    16    36    1
    35    17    21   ar
    36    18    38    1
    37    18    39    1
    38    18    40    1
    39    19    22   ar
    40    19    41    1
    41    20    24    2
    42    20    42    1
    43    21    23   ar
    44    21    43    1
    45    22    23   ar
    46    22    44    1
    47    24    25    1
    48    24    26    1
    49    25    45    1
    50    25    46    1
    51    25    47    1
    52    26    48    1
    53    26    49    1
    54    26    50    1
