@<TRIPOS>MOLECULE
IMPHY008859
 26 27 0 0 0
SMALL
GASTEIGER

@<TRIPOS>ATOM
      1 O           6.3301   -1.7500    0.0000 O.2     1  UNL1       -0.2793
      2 N           5.4641   -0.2500    0.0000 N.am    1  UNL1       -0.2929
      3 N           2.8660   -1.7500    0.0000 N.ar    1  UNL1       -0.2629
      4 C           4.5981    0.2500    0.0000 C.3     1  UNL1        0.0561
      5 C           4.5981    1.2500    0.0000 C.3     1  UNL1       -0.0118
      6 C           6.3301    0.2500    0.0000 C.3     1  UNL1        0.0332
      7 C           3.7320   -0.2500    0.0000 C.ar    1  UNL1       -0.0086
      8 C           5.4641    1.7500    0.0000 C.2     1  UNL1       -0.0844
      9 C           6.3301    1.2500    0.0000 C.2     1  UNL1       -0.0707
     10 C           2.8660    0.2500    0.0000 C.ar    1  UNL1       -0.0539
     11 C           5.4641   -1.2500    0.0000 C.2     1  UNL1        0.2033
     12 C           3.7320   -1.2500    0.0000 C.ar    1  UNL1        0.0325
     13 C           2.0000   -0.2500    0.0000 C.ar    1  UNL1       -0.0433
     14 C           2.0000   -1.2500    0.0000 C.ar    1  UNL1        0.0276
     15 H           4.5981   -0.3700    0.0000 H       1  UNL1        0.0554
     16 H           4.3860    1.8326    0.0000 H       1  UNL1        0.0329
     17 H           3.9875    1.1423    0.0000 H       1  UNL1        0.0329
     18 H           6.5422   -0.3326    0.0000 H       1  UNL1        0.0508
     19 H           6.9407    0.3577    0.0000 H       1  UNL1        0.0508
     20 H           5.4641    2.3700    0.0000 H       1  UNL1        0.0570
     21 H           6.8671    1.5600    0.0000 H       1  UNL1        0.0585
     22 H           2.8660    0.8700    0.0000 H       1  UNL1        0.0622
     23 H           4.9272   -1.5600    0.0000 H       1  UNL1        0.1254
     24 H           4.2690   -1.5600    0.0000 H       1  UNL1        0.0833
     25 H           1.4631    0.0600    0.0000 H       1  UNL1        0.0633
     26 H           1.4631   -1.5600    0.0000 H       1  UNL1        0.0829
@<TRIPOS>BOND
     1     1    11    2
     2     2     4    1
     3     2     6    1
     4     2    11   am
     5     3    12   ar
     6     3    14   ar
     7     4     5    1
     8     4     7    1
     9     4    15    1
    10     5     8    1
    11     5    16    1
    12     5    17    1
    13     6     9    1
    14     6    18    1
    15     6    19    1
    16     7    10   ar
    17     7    12   ar
    18     8     9    2
    19     8    20    1
    20     9    21    1
    21    10    13   ar
    22    10    22    1
    23    11    23    1
    24    12    24    1
    25    13    14   ar
    26    13    25    1
    27    14    26    1
