@<TRIPOS>MOLECULE
IMPHY012373
 50 52 0 0 0
SMALL
GASTEIGER

@<TRIPOS>ATOM
      1 O           6.8671    0.1550    0.0000 O.3     1  UNL1       -0.3096
      2 O           6.0010    1.6550    0.0000 O.2     1  UNL1       -0.4710
      3 O           5.1350    0.1550    0.0000 O.3     1  UNL1       -0.3374
      4 O           3.4030   -0.8450    0.0000 O.3     1  UNL1       -0.3834
      5 O           5.1350   -2.8450    0.0000 O.3     1  UNL1       -0.3861
      6 O           6.8671   -1.8450    0.0000 O.3     1  UNL1       -0.3841
      7 O           3.4030    1.1550    0.0000 O.3     1  UNL1       -0.3650
      8 O           2.5369   -0.3450    0.0000 O.3     1  UNL1       -0.3650
      9 C           7.7331    1.6550    0.0000 C.3     1  UNL1        0.0306
     10 C           7.7331    2.6550    0.0000 C.3     1  UNL1       -0.0110
     11 C           8.6793    1.3503    0.0000 C.3     1  UNL1       -0.0348
     12 C           8.6793    2.9597    0.0000 C.3     1  UNL1       -0.0459
     13 C           9.2629    2.1550    0.0000 C.3     1  UNL1       -0.0495
     14 C           6.8671    1.1550    0.0000 C.3     1  UNL1        0.2070
     15 C           4.2690   -1.3450    0.0000 C.3     1  UNL1        0.1223
     16 C           6.0010   -0.3450    0.0000 C.3     1  UNL1        0.1920
     17 C           6.8671    3.1550    0.0000 C.2     1  UNL1       -0.0460
     18 C           8.9900    0.3997    0.0000 C.3     1  UNL1       -0.0619
     19 C           5.1350   -1.8450    0.0000 C.3     1  UNL1        0.1167
     20 C           6.0010   -1.3450    0.0000 C.3     1  UNL1        0.1345
     21 C           4.2690   -0.3450    0.0000 C.3     1  UNL1        0.1428
     22 C           6.0010    2.6550    0.0000 C.2     1  UNL1        0.0842
     23 C           4.2690   -2.3450    0.0000 C.3     1  UNL1       -0.0309
     24 C           3.4030    0.1550    0.0000 C.3     1  UNL1        0.1829
     25 H           7.8230    0.8098    0.0000 H       1  UNL1        0.0369
     26 H           7.8230    3.5002    0.0000 H       1  UNL1        0.0349
     27 H           8.2418    0.9109    0.0000 H       1  UNL1        0.0303
     28 H           9.2167    3.2690    0.0000 H       1  UNL1        0.0271
     29 H           8.4283    3.5266    0.0000 H       1  UNL1        0.0271
     30 H           9.7238    1.7403    0.0000 H       1  UNL1        0.0268
     31 H           9.7238    2.5697    0.0000 H       1  UNL1        0.0268
     32 H           7.4040    0.8450    0.0000 H       1  UNL1        0.1059
     33 H           6.0010    0.2750    0.0000 H       1  UNL1        0.0939
     34 H           6.8671    3.7750    0.0000 H       1  UNL1        0.0605
     35 H           8.4006    0.2071    0.0000 H       1  UNL1        0.0233
     36 H           9.1826   -0.1896    0.0000 H       1  UNL1        0.0233
     37 H           9.5793    0.5924    0.0000 H       1  UNL1        0.0233
     38 H           5.6720   -2.1550    0.0000 H       1  UNL1        0.0650
     39 H           6.5380   -1.0350    0.0000 H       1  UNL1        0.0671
     40 H           4.2690    0.2750    0.0000 H       1  UNL1        0.0678
     41 H           5.4641    2.9650    0.0000 H       1  UNL1        0.1021
     42 H           3.6490   -2.3450    0.0000 H       1  UNL1        0.0259
     43 H           4.2690   -2.9650    0.0000 H       1  UNL1        0.0259
     44 H           4.8890   -2.3450    0.0000 H       1  UNL1        0.0259
     45 H           3.4030   -0.4650    0.0000 H       1  UNL1        0.0934
     46 H           2.8660   -1.1550    0.0000 H       1  UNL1        0.2104
     47 H           5.6720   -3.1550    0.0000 H       1  UNL1        0.2100
     48 H           7.4040   -1.5350    0.0000 H       1  UNL1        0.2101
     49 H           2.8660    1.4650    0.0000 H       1  UNL1        0.2126
     50 H           2.0000   -0.0350    0.0000 H       1  UNL1        0.2126
@<TRIPOS>BOND
     1     1    14    1
     2    16     1    1
     3     2    14    1
     4     2    22    1
     5     3    16    1
     6     3    21    1
     7    15     4    1
     8     4    46    1
     9    19     5    1
    10     5    47    1
    11    20     6    1
    12     6    48    1
    13     7    24    1
    14     7    49    1
    15     8    24    1
    16     8    50    1
    17     9    10    1
    18     9    11    1
    19     9    14    1
    20     9    25    1
    21    10    12    1
    22    10    17    1
    23    10    26    1
    24    11    13    1
    25    11    18    1
    26    11    27    1
    27    12    13    1
    28    12    28    1
    29    12    29    1
    30    13    30    1
    31    13    31    1
    32    14    32    1
    33    15    19    1
    34    15    21    1
    35    15    23    1
    36    16    20    1
    37    16    33    1
    38    17    22    2
    39    17    34    1
    40    18    35    1
    41    18    36    1
    42    18    37    1
    43    19    20    1
    44    19    38    1
    45    20    39    1
    46    21    24    1
    47    21    40    1
    48    22    41    1
    49    23    42    1
    50    23    43    1
    51    23    44    1
    52    24    45    1
