@<TRIPOS>MOLECULE
IMPHY001842
 24 25 0 0 0
SMALL
GASTEIGER

@<TRIPOS>ATOM
      1 N           4.6783   -1.7944    0.0000 N.ar    1  UNL1       -0.3604
      2 N           6.2781    1.9223    0.0000 N.3     1  UNL1       -0.3297
      3 C           4.6783   -0.1850    0.0000 C.ar    1  UNL1       -0.0212
      4 C           3.7320   -0.4897    0.0000 C.ar    1  UNL1        0.0029
      5 C           4.9889    0.7656    0.0000 C.3     1  UNL1       -0.0133
      6 C           3.7320   -1.4897    0.0000 C.ar    1  UNL1        0.0467
      7 C           5.2619   -0.9897    0.0000 C.ar    1  UNL1        0.0059
      8 C           5.9674    0.9718    0.0000 C.3     1  UNL1       -0.0029
      9 C           2.8660    0.0103    0.0000 C.ar    1  UNL1       -0.0523
     10 C           2.8660   -1.9897    0.0000 C.ar    1  UNL1       -0.0378
     11 C           2.0000   -0.4897    0.0000 C.ar    1  UNL1       -0.0611
     12 C           2.0000   -1.4897    0.0000 C.ar    1  UNL1       -0.0598
     13 H           4.9684    1.3852    0.0000 H       1  UNL1        0.0326
     14 H           4.3751    0.8529    0.0000 H       1  UNL1        0.0326
     15 H           5.8819   -0.9897    0.0000 H       1  UNL1        0.0810
     16 H           4.8709   -2.3838    0.0000 H       1  UNL1        0.1653
     17 H           5.9880    0.3521    0.0000 H       1  UNL1        0.0425
     18 H           6.5812    0.8844    0.0000 H       1  UNL1        0.0425
     19 H           2.8660    0.6303    0.0000 H       1  UNL1        0.0624
     20 H           2.8660   -2.6097    0.0000 H       1  UNL1        0.0638
     21 H           1.4631   -0.1797    0.0000 H       1  UNL1        0.0618
     22 H           1.4631   -1.7997    0.0000 H       1  UNL1        0.0618
     23 H           6.8848    2.0502    0.0000 H       1  UNL1        0.1182
     24 H           5.8640    2.3838    0.0000 H       1  UNL1        0.1182
@<TRIPOS>BOND
     1     1     6   ar
     2     1     7   ar
     3     1    16    1
     4     2     8    1
     5     2    23    1
     6     2    24    1
     7     3     4   ar
     8     3     5    1
     9     3     7   ar
    10     4     6   ar
    11     4     9   ar
    12     5     8    1
    13     5    13    1
    14     5    14    1
    15     6    10   ar
    16     7    15    1
    17     8    17    1
    18     8    18    1
    19     9    11   ar
    20     9    19    1
    21    10    12   ar
    22    10    20    1
    23    11    12   ar
    24    11    21    1
    25    12    22    1
