@<TRIPOS>MOLECULE
IMPHY005829
 34 34 0 0 0
SMALL
GASTEIGER

@<TRIPOS>ATOM
      1 O           3.7601   -1.0141    0.0000 O.3     1  UNL1       -0.4610
      2 O           2.0000   -0.7354    0.0000 O.2     1  UNL1       -0.2508
      3 C           4.5691   -0.4263    0.0000 C.3     1  UNL1        0.1070
      4 C           4.2601    0.5247    0.0000 C.3     1  UNL1       -0.0053
      5 C           5.5202   -0.7354    0.0000 C.3     1  UNL1        0.0026
      6 C           3.2601    0.5247    0.0000 C.3     1  UNL1        0.0483
      7 C           2.9511   -0.4263    0.0000 C.2     1  UNL1        0.3075
      8 C           8.9086   -0.0151    0.0000 C.3     1  UNL1       -0.0496
      9 C           7.9575    0.2939    0.0000 C.3     1  UNL1       -0.0348
     10 C           6.2633   -0.0662    0.0000 C.2     1  UNL1       -0.0845
     11 C           9.6517    0.6540    0.0000 C.3     1  UNL1       -0.0530
     12 C           7.2144   -0.3752    0.0000 C.2     1  UNL1       -0.0878
     13 C          10.6028    0.3450    0.0000 C.3     1  UNL1       -0.0559
     14 C          11.3459    1.0141    0.0000 C.3     1  UNL1       -0.0653
     15 H           4.7021   -1.2659    0.0000 H       1  UNL1        0.0737
     16 H           4.8665    0.6536    0.0000 H       1  UNL1        0.0306
     17 H           4.1953    1.1413    0.0000 H       1  UNL1        0.0306
     18 H           5.2291   -1.2828    0.0000 H       1  UNL1        0.0343
     19 H           6.0087   -1.1171    0.0000 H       1  UNL1        0.0343
     20 H           3.3249    1.1413    0.0000 H       1  UNL1        0.0379
     21 H           2.6536    0.6536    0.0000 H       1  UNL1        0.0379
     22 H           8.6175   -0.5626    0.0000 H       1  UNL1        0.0268
     23 H           9.3971   -0.3968    0.0000 H       1  UNL1        0.0268
     24 H           8.2486    0.8413    0.0000 H       1  UNL1        0.0307
     25 H           7.4689    0.6756    0.0000 H       1  UNL1        0.0307
     26 H           6.1344    0.5402    0.0000 H       1  UNL1        0.0570
     27 H           9.9428    1.2014    0.0000 H       1  UNL1        0.0265
     28 H           9.1631    1.0357    0.0000 H       1  UNL1        0.0265
     29 H           7.3432   -0.9817    0.0000 H       1  UNL1        0.0569
     30 H          10.3117   -0.2024    0.0000 H       1  UNL1        0.0263
     31 H          11.0913   -0.0367    0.0000 H       1  UNL1        0.0263
     32 H          11.7608    0.5534    0.0000 H       1  UNL1        0.0230
     33 H          11.8066    1.4290    0.0000 H       1  UNL1        0.0230
     34 H          10.9310    1.4749    0.0000 H       1  UNL1        0.0230
@<TRIPOS>BOND
     1     1     3    1
     2     1     7    1
     3     2     7    2
     4     3     4    1
     5     3     5    1
     6     3    15    1
     7     4     6    1
     8     4    16    1
     9     4    17    1
    10     5    10    1
    11     5    18    1
    12     5    19    1
    13     6     7    1
    14     6    20    1
    15     6    21    1
    16     8     9    1
    17     8    11    1
    18     8    22    1
    19     8    23    1
    20     9    12    1
    21     9    24    1
    22     9    25    1
    23    10    12    2
    24    10    26    1
    25    11    13    1
    26    11    27    1
    27    11    28    1
    28    12    29    1
    29    13    14    1
    30    13    30    1
    31    13    31    1
    32    14    32    1
    33    14    33    1
    34    14    34    1
