@<TRIPOS>MOLECULE
IMPHY015567
 33 32 0 0 0
SMALL
GASTEIGER

@<TRIPOS>ATOM
      1 O           6.3301    0.0000    0.0000 O.3     1  UNL1       -0.4643
      2 O           7.1962   -1.5000    0.0000 O.2     1  UNL1       -0.2508
      3 C           8.9282   -0.5000    0.0000 C.3     1  UNL1       -0.0367
      4 C           8.0622    0.0000    0.0000 C.3     1  UNL1        0.0473
      5 C           9.7942    0.0000    0.0000 C.3     1  UNL1       -0.0622
      6 C           8.9282   -1.5000    0.0000 C.3     1  UNL1       -0.0622
      7 C           7.1962   -0.5000    0.0000 C.2     1  UNL1        0.3073
      8 C           5.4641   -0.5000    0.0000 C.3     1  UNL1        0.0959
      9 C           4.5981    0.0000    0.0000 C.3     1  UNL1       -0.0003
     10 C           3.7320   -0.5000    0.0000 C.2     1  UNL1       -0.0847
     11 C           2.8660   -0.0000    0.0000 C.2     1  UNL1       -0.0881
     12 C           2.8660    1.0000    0.0000 C.3     1  UNL1       -0.0376
     13 C           2.0000    1.5000    0.0000 C.3     1  UNL1       -0.0618
     14 H           9.4651   -0.8100    0.0000 H       1  UNL1        0.0301
     15 H           8.4607    0.4749    0.0000 H       1  UNL1        0.0380
     16 H           7.6636    0.4749    0.0000 H       1  UNL1        0.0380
     17 H          10.1042   -0.5369    0.0000 H       1  UNL1        0.0232
     18 H          10.3312    0.3100    0.0000 H       1  UNL1        0.0232
     19 H           9.4842    0.5369    0.0000 H       1  UNL1        0.0232
     20 H           8.3082   -1.5000    0.0000 H       1  UNL1        0.0232
     21 H           8.9282   -2.1200    0.0000 H       1  UNL1        0.0232
     22 H           9.5482   -1.5000    0.0000 H       1  UNL1        0.0232
     23 H           5.0656   -0.9749    0.0000 H       1  UNL1        0.0700
     24 H           5.8626   -0.9749    0.0000 H       1  UNL1        0.0700
     25 H           4.9966    0.4749    0.0000 H       1  UNL1        0.0340
     26 H           4.1996    0.4749    0.0000 H       1  UNL1        0.0340
     27 H           3.7320   -1.1200    0.0000 H       1  UNL1        0.0570
     28 H           2.3291   -0.3100    0.0000 H       1  UNL1        0.0569
     29 H           3.4766    0.8923    0.0000 H       1  UNL1        0.0305
     30 H           3.0781    1.5826    0.0000 H       1  UNL1        0.0305
     31 H           2.3100    2.0369    0.0000 H       1  UNL1        0.0233
     32 H           1.4631    1.8100    0.0000 H       1  UNL1        0.0233
     33 H           1.6900    0.9631    0.0000 H       1  UNL1        0.0233
@<TRIPOS>BOND
     1     1     7    1
     2     1     8    1
     3     2     7    2
     4     3     4    1
     5     3     5    1
     6     3     6    1
     7     3    14    1
     8     4     7    1
     9     4    15    1
    10     4    16    1
    11     5    17    1
    12     5    18    1
    13     5    19    1
    14     6    20    1
    15     6    21    1
    16     6    22    1
    17     8     9    1
    18     8    23    1
    19     8    24    1
    20     9    10    1
    21     9    25    1
    22     9    26    1
    23    10    11    2
    24    10    27    1
    25    11    12    1
    26    11    28    1
    27    12    13    1
    28    12    29    1
    29    12    30    1
    30    13    31    1
    31    13    32    1
    32    13    33    1
