@<TRIPOS>MOLECULE
IMPHY001843
 82 87 0 0 0
SMALL
GASTEIGER

@<TRIPOS>ATOM
      1 O          10.4869    2.6845    0.0000 O.3     1  UNL1       -0.3591
      2 O          10.1449    0.8956    0.0000 O.3     1  UNL1       -0.3184
      3 O           9.2588    0.4112    0.0000 O.3     1  UNL1       -0.3194
      4 O           9.3647   -1.1654    0.0000 O.3     1  UNL1       -0.3128
      5 O          13.3221    2.7283    0.0000 O.3     1  UNL1       -0.3773
      6 O          12.9100    3.4361    0.0000 O.3     1  UNL1       -0.3854
      7 O          11.7342    4.2479    0.0000 O.3     1  UNL1       -0.3920
      8 O          14.6043    2.6974    0.0000 O.2     1  UNL1       -0.2892
      9 C          11.0751    0.7784    0.0000 C.3     1  UNL1        0.0478
     10 C          11.9761    0.3445    0.0000 C.3     1  UNL1        0.0948
     11 C          10.8526    1.7533    0.0000 C.3     1  UNL1        0.1013
     12 C          11.4761    2.5352    0.0000 C.3     1  UNL1        0.1479
     13 C          10.2055    0.2050    0.0000 C.3     1  UNL1        0.1050
     14 C          12.8771    0.7784    0.0000 C.3     1  UNL1        0.0464
     15 C          12.0699   -0.6929    0.0000 C.3     1  UNL1       -0.0104
     16 C          10.2754   -0.8343    0.0000 C.3     1  UNL1        0.1224
     17 C          13.0996    1.7533    0.0000 C.3     1  UNL1        0.1650
     18 C          12.4761    2.5352    0.0000 C.3     1  UNL1        0.1252
     19 C          11.2139   -1.2863    0.0000 C.3     1  UNL1       -0.0120
     20 C           8.7520   -0.4147    0.0000 C.3     1  UNL1        0.2872
     21 C          12.0996    3.3170    0.0000 C.3     1  UNL1        0.0783
     22 C          13.7317    0.2708    0.0000 C.2     1  UNL1       -0.0687
     23 C          12.9759   -1.1163    0.0000 C.3     1  UNL1       -0.0597
     24 C          14.0899    1.8399    0.0000 C.2     1  UNL1        0.1933
     25 C          10.2253   -1.8331    0.0000 C.2     1  UNL1       -0.0457
     26 C           7.7543   -0.4817    0.0000 C.3     1  UNL1        0.0294
     27 C          14.4798    0.9254    0.0000 C.2     1  UNL1       -0.0085
     28 C           7.3134   -1.3793    0.0000 C.3     1  UNL1       -0.0457
     29 C           9.3354   -2.2891    0.0000 C.3     1  UNL1       -0.0413
     30 C          11.0652   -2.3758    0.0000 C.2     1  UNL1       -0.0969
     31 C          15.4547    0.7029    0.0000 C.3     1  UNL1       -0.0366
     32 C           6.3157   -1.4464    0.0000 C.3     1  UNL1       -0.0528
     33 C           5.8749   -2.3440    0.0000 C.3     1  UNL1       -0.0531
     34 C           4.8771   -2.4110    0.0000 C.3     1  UNL1       -0.0531
     35 C           4.4363   -3.3086    0.0000 C.3     1  UNL1       -0.0531
     36 C           3.4386   -3.3756    0.0000 C.3     1  UNL1       -0.0533
     37 C           2.9978   -4.2732    0.0000 C.3     1  UNL1       -0.0559
     38 C           2.0000   -4.3403    0.0000 C.3     1  UNL1       -0.0653
     39 H          10.5503    1.4470    0.0000 H       1  UNL1        0.0381
     40 H          10.0404    1.5027    0.0000 H       1  UNL1        0.0631
     41 H           9.5192    0.7065    0.0000 H       1  UNL1        0.0635
     42 H          12.8400   -0.0708    0.0000 H       1  UNL1        0.0405
     43 H          12.5774   -0.3367    0.0000 H       1  UNL1        0.0327
     44 H          12.1462    3.0601    0.0000 H       1  UNL1        0.0657
     45 H          10.8532   -1.7906    0.0000 H       1  UNL1        0.0301
     46 H          11.6490   -1.7279    0.0000 H       1  UNL1        0.0301
     47 H          12.5098    2.8521    0.0000 H       1  UNL1        0.0588
     48 H          12.6286    3.6403    0.0000 H       1  UNL1        0.0588
     49 H          13.7884   -0.3466    0.0000 H       1  UNL1        0.0580
     50 H          12.7133   -1.6780    0.0000 H       1  UNL1        0.0233
     51 H          13.5375   -1.3788    0.0000 H       1  UNL1        0.0233
     52 H          13.2384   -0.5546    0.0000 H       1  UNL1        0.0233
     53 H           7.8208    0.1347    0.0000 H       1  UNL1        0.0343
     54 H           7.1588   -0.3092    0.0000 H       1  UNL1        0.0343
     55 H          13.9146    2.9110    0.0000 H       1  UNL1        0.2109
     56 H          12.5607    3.9484    0.0000 H       1  UNL1        0.2100
     57 H           7.2470   -1.9958    0.0000 H       1  UNL1        0.0268
     58 H           7.9090   -1.5518    0.0000 H       1  UNL1        0.0268
     59 H           9.0526   -1.7373    0.0000 H       1  UNL1        0.0275
     60 H           8.7836   -2.5718    0.0000 H       1  UNL1        0.0275
     61 H           9.6181   -2.8409    0.0000 H       1  UNL1        0.0275
     62 H          11.1212    4.3403    0.0000 H       1  UNL1        0.2095
     63 H          11.0342   -2.9950    0.0000 H       1  UNL1        0.0535
     64 H          11.6170   -2.0930    0.0000 H       1  UNL1        0.0535
     65 H          15.3168    0.0985    0.0000 H       1  UNL1        0.0279
     66 H          16.0592    0.5650    0.0000 H       1  UNL1        0.0279
     67 H          15.5927    1.3074    0.0000 H       1  UNL1        0.0279
     68 H           6.3822   -0.8299    0.0000 H       1  UNL1        0.0265
     69 H           5.7202   -1.2738    0.0000 H       1  UNL1        0.0265
     70 H           5.8084   -2.9604    0.0000 H       1  UNL1        0.0265
     71 H           6.4704   -2.5165    0.0000 H       1  UNL1        0.0265
     72 H           4.9436   -1.7946    0.0000 H       1  UNL1        0.0265
     73 H           4.2816   -2.2385    0.0000 H       1  UNL1        0.0265
     74 H           4.3698   -3.9250    0.0000 H       1  UNL1        0.0265
     75 H           5.0318   -3.4811    0.0000 H       1  UNL1        0.0265
     76 H           3.5050   -2.7592    0.0000 H       1  UNL1        0.0265
     77 H           2.8430   -3.2031    0.0000 H       1  UNL1        0.0265
     78 H           2.9313   -4.8897    0.0000 H       1  UNL1        0.0263
     79 H           3.5933   -4.4458    0.0000 H       1  UNL1        0.0263
     80 H           1.9584   -3.7217    0.0000 H       1  UNL1        0.0230
     81 H           1.3814   -4.3818    0.0000 H       1  UNL1        0.0230
     82 H           2.0416   -4.9589    0.0000 H       1  UNL1        0.0230
@<TRIPOS>BOND
     1     1    11    1
     2     1    12    1
     3    10     2    1
     4     2    20    1
     5     3    13    1
     6     3    20    1
     7     4    16    1
     8     4    20    1
     9    17     5    1
    10     5    55    1
    11    18     6    1
    12     6    56    1
    13     7    21    1
    14     7    62    1
    15     8    24    2
    16     9    10    1
    17     9    11    1
    18     9    13    1
    19     9    39    1
    20    10    14    1
    21    10    15    1
    22    11    12    1
    23    11    40    1
    24    12    18    1
    25    12    21    1
    26    13    16    1
    27    13    41    1
    28    14    17    1
    29    14    22    1
    30    14    42    1
    31    15    19    1
    32    15    23    1
    33    15    43    1
    34    16    19    1
    35    16    25    1
    36    17    18    1
    37    17    24    1
    38    18    44    1
    39    19    45    1
    40    19    46    1
    41    20    26    1
    42    21    47    1
    43    21    48    1
    44    22    27    2
    45    22    49    1
    46    23    50    1
    47    23    51    1
    48    23    52    1
    49    24    27    1
    50    25    29    1
    51    25    30    2
    52    26    28    1
    53    26    53    1
    54    26    54    1
    55    27    31    1
    56    28    32    1
    57    28    57    1
    58    28    58    1
    59    29    59    1
    60    29    60    1
    61    29    61    1
    62    30    63    1
    63    30    64    1
    64    31    65    1
    65    31    66    1
    66    31    67    1
    67    32    33    1
    68    32    68    1
    69    32    69    1
    70    33    34    1
    71    33    70    1
    72    33    71    1
    73    34    35    1
    74    34    72    1
    75    34    73    1
    76    35    36    1
    77    35    74    1
    78    35    75    1
    79    36    37    1
    80    36    76    1
    81    36    77    1
    82    37    38    1
    83    37    78    1
    84    37    79    1
    85    38    80    1
    86    38    81    1
    87    38    82    1
