@<TRIPOS>MOLECULE
IMPHY011442
 60 64 0 0 0
SMALL
GASTEIGER

@<TRIPOS>ATOM
      1 O           5.4583    3.2788    0.0000 O.3     1  UNL1       -0.4606
      2 O           3.0809   -1.7984    0.0000 O.3     1  UNL1       -0.4596
      3 O           3.9696    4.2479    0.0000 O.2     1  UNL1       -0.2505
      4 O           2.0000   -3.2152    0.0000 O.2     1  UNL1       -0.2505
      5 N           5.5278   -0.6638    0.0000 N.3     1  UNL1       -0.2924
      6 C           4.8014    0.8070    0.0000 C.3     1  UNL1       -0.0166
      7 C           5.6675    0.3070    0.0000 C.3     1  UNL1        0.0173
      8 C           4.8014    1.8070    0.0000 C.3     1  UNL1        0.0134
      9 C           6.5335    0.8070    0.0000 C.3     1  UNL1       -0.0189
     10 C           6.5335    1.8070    0.0000 C.3     1  UNL1        0.0005
     11 C           5.6675    2.3070    0.0000 C.3     1  UNL1        0.1100
     12 C           4.1088    0.1015    0.0000 C.3     1  UNL1       -0.0292
     13 C           4.5466   -0.7849    0.0000 C.3     1  UNL1        0.0480
     14 C           4.0644    2.4741    0.0000 C.3     1  UNL1        0.0601
     15 C           7.4441    0.4426    0.0000 C.3     1  UNL1       -0.0484
     16 C           6.1978   -1.3801    0.0000 C.3     1  UNL1       -0.0004
     17 C           4.0719   -1.6651    0.0000 C.3     1  UNL1        0.1193
     18 C           7.3995    2.3070    0.0000 C.3     1  UNL1       -0.0494
     19 C           7.7294   -0.4958    0.0000 C.3     1  UNL1       -0.0516
     20 C           7.1758   -1.3054    0.0000 C.3     1  UNL1       -0.0402
     21 C           4.4696    3.3819    0.0000 C.2     1  UNL1        0.3106
     22 C           4.5050   -2.5664    0.0000 C.3     1  UNL1       -0.0015
     23 C           3.0859    2.2679    0.0000 C.3     1  UNL1       -0.0519
     24 C           7.3995    3.3070    0.0000 C.3     1  UNL1       -0.0649
     25 C           3.7815   -3.2568    0.0000 C.3     1  UNL1        0.0570
     26 C           2.9014   -2.7821    0.0000 C.2     1  UNL1        0.3104
     27 C           3.9148   -4.2479    0.0000 C.3     1  UNL1       -0.0522
     28 H           4.0147    1.1287    0.0000 H       1  UNL1        0.0320
     29 H           6.4036   -0.1180    0.0000 H       1  UNL1        0.0468
     30 H           4.0245    1.4623    0.0000 H       1  UNL1        0.0348
     31 H           7.2374    1.2835    0.0000 H       1  UNL1        0.0320
     32 H           6.5335    2.4270    0.0000 H       1  UNL1        0.0340
     33 H           6.3545    2.8075    0.0000 H       1  UNL1        0.0740
     34 H           3.7177    0.5826    0.0000 H       1  UNL1        0.0285
     35 H           3.5871   -0.2334    0.0000 H       1  UNL1        0.0285
     36 H           3.6968   -0.7697    0.0000 H       1  UNL1        0.0499
     37 H           3.6749    2.9564    0.0000 H       1  UNL1        0.0415
     38 H           8.0626    0.4858    0.0000 H       1  UNL1        0.0269
     39 H           7.5400    1.0551    0.0000 H       1  UNL1        0.0269
     40 H           5.6619   -1.6917    0.0000 H       1  UNL1        0.0427
     41 H           6.3819   -1.9721    0.0000 H       1  UNL1        0.0427
     42 H           3.5885   -0.9659    0.0000 H       1  UNL1        0.0750
     43 H           7.6116    1.7244    0.0000 H       1  UNL1        0.0267
     44 H           8.0101    2.4147    0.0000 H       1  UNL1        0.0267
     45 H           8.1501   -0.9513    0.0000 H       1  UNL1        0.0266
     46 H           8.2673   -0.1875    0.0000 H       1  UNL1        0.0266
     47 H           7.0836   -1.9186    0.0000 H       1  UNL1        0.0278
     48 H           7.7528   -1.5322    0.0000 H       1  UNL1        0.0278
     49 H           4.8838   -3.0573    0.0000 H       1  UNL1        0.0309
     50 H           5.0327   -2.2410    0.0000 H       1  UNL1        0.0309
     51 H           2.9581    2.8746    0.0000 H       1  UNL1        0.0238
     52 H           2.4793    2.1400    0.0000 H       1  UNL1        0.0238
     53 H           3.2138    1.6612    0.0000 H       1  UNL1        0.0238
     54 H           8.0195    3.3070    0.0000 H       1  UNL1        0.0230
     55 H           7.3995    3.9270    0.0000 H       1  UNL1        0.0230
     56 H           6.7795    3.3070    0.0000 H       1  UNL1        0.0230
     57 H           3.2716   -3.6094    0.0000 H       1  UNL1        0.0412
     58 H           3.3004   -4.3306    0.0000 H       1  UNL1        0.0238
     59 H           3.9975   -4.8624    0.0000 H       1  UNL1        0.0238
     60 H           4.5293   -4.1653    0.0000 H       1  UNL1        0.0238
@<TRIPOS>BOND
     1     1    11    1
     2     1    21    1
     3     2    17    1
     4     2    26    1
     5     3    21    2
     6     4    26    2
     7     5     7    1
     8     5    13    1
     9     5    16    1
    10     6     7    1
    11     6     8    1
    12     6    12    1
    13     6    28    1
    14     7     9    1
    15     7    29    1
    16     8    11    1
    17     8    14    1
    18     8    30    1
    19     9    10    1
    20     9    15    1
    21     9    31    1
    22    10    11    1
    23    10    18    1
    24    10    32    1
    25    11    33    1
    26    12    13    1
    27    12    34    1
    28    12    35    1
    29    13    17    1
    30    13    36    1
    31    14    21    1
    32    14    23    1
    33    14    37    1
    34    15    19    1
    35    15    38    1
    36    15    39    1
    37    16    20    1
    38    16    40    1
    39    16    41    1
    40    17    22    1
    41    17    42    1
    42    18    24    1
    43    18    43    1
    44    18    44    1
    45    19    20    1
    46    19    45    1
    47    19    46    1
    48    20    47    1
    49    20    48    1
    50    22    25    1
    51    22    49    1
    52    22    50    1
    53    23    51    1
    54    23    52    1
    55    23    53    1
    56    24    54    1
    57    24    55    1
    58    24    56    1
    59    25    26    1
    60    25    27    1
    61    25    57    1
    62    27    58    1
    63    27    59    1
    64    27    60    1
