@<TRIPOS>MOLECULE
IMPHY016140
 36 36 0 0 0
SMALL
GASTEIGER

@<TRIPOS>ATOM
      1 C           4.5981    1.0000    0.0000 C.3     1  UNL1       -0.0467
      2 C           4.5981    2.0000    0.0000 C.3     1  UNL1       -0.0464
      3 C           3.7320    0.5000    0.0000 C.3     1  UNL1       -0.0272
      4 C           3.7320   -0.5000    0.0000 C.ar    1  UNL1       -0.0439
      5 C           2.8660   -1.0000    0.0000 C.ar    1  UNL1       -0.0443
      6 C           5.4641    2.5000    0.0000 C.3     1  UNL1       -0.0627
      7 C           3.7320    2.5000    0.0000 C.3     1  UNL1       -0.0627
      8 C           4.5981   -1.0000    0.0000 C.ar    1  UNL1       -0.0554
      9 C           2.8660   -2.0000    0.0000 C.ar    1  UNL1       -0.0470
     10 C           4.5981   -2.0000    0.0000 C.ar    1  UNL1       -0.0499
     11 C           3.7320   -2.5000    0.0000 C.ar    1  UNL1       -0.0557
     12 C           2.0000   -0.5000    0.0000 C.3     1  UNL1       -0.0392
     13 C           2.0000   -2.5000    0.0000 C.3     1  UNL1       -0.0394
     14 C           5.4641   -2.5000    0.0000 C.3     1  UNL1       -0.0397
     15 H           4.8101    0.4174    0.0000 H       1  UNL1        0.0271
     16 H           5.2087    1.1077    0.0000 H       1  UNL1        0.0271
     17 H           4.5981    2.6200    0.0000 H       1  UNL1        0.0296
     18 H           3.5200    1.0826    0.0000 H       1  UNL1        0.0313
     19 H           3.1215    0.3923    0.0000 H       1  UNL1        0.0313
     20 H           5.7741    1.9631    0.0000 H       1  UNL1        0.0232
     21 H           6.0010    2.8100    0.0000 H       1  UNL1        0.0232
     22 H           5.1541    3.0369    0.0000 H       1  UNL1        0.0232
     23 H           4.0420    3.0369    0.0000 H       1  UNL1        0.0232
     24 H           3.1951    2.8100    0.0000 H       1  UNL1        0.0232
     25 H           3.4220    1.9631    0.0000 H       1  UNL1        0.0232
     26 H           5.1350   -0.6900    0.0000 H       1  UNL1        0.0623
     27 H           3.7320   -3.1200    0.0000 H       1  UNL1        0.0623
     28 H           2.3100    0.0369    0.0000 H       1  UNL1        0.0278
     29 H           1.4631   -0.1900    0.0000 H       1  UNL1        0.0278
     30 H           1.6900   -1.0369    0.0000 H       1  UNL1        0.0278
     31 H           1.6900   -1.9631    0.0000 H       1  UNL1        0.0278
     32 H           1.4631   -2.8100    0.0000 H       1  UNL1        0.0278
     33 H           2.3100   -3.0369    0.0000 H       1  UNL1        0.0278
     34 H           5.1541   -3.0369    0.0000 H       1  UNL1        0.0278
     35 H           6.0010   -2.8100    0.0000 H       1  UNL1        0.0278
     36 H           5.7741   -1.9631    0.0000 H       1  UNL1        0.0278
@<TRIPOS>BOND
     1     1     2    1
     2     1     3    1
     3     1    15    1
     4     1    16    1
     5     2     6    1
     6     2     7    1
     7     2    17    1
     8     3     4    1
     9     3    18    1
    10     3    19    1
    11     4     5   ar
    12     4     8   ar
    13     5     9   ar
    14     5    12    1
    15     6    20    1
    16     6    21    1
    17     6    22    1
    18     7    23    1
    19     7    24    1
    20     7    25    1
    21     8    10   ar
    22     8    26    1
    23     9    11   ar
    24     9    13    1
    25    10    11   ar
    26    10    14    1
    27    11    27    1
    28    12    28    1
    29    12    29    1
    30    12    30    1
    31    13    31    1
    32    13    32    1
    33    13    33    1
    34    14    34    1
    35    14    35    1
    36    14    36    1
