@<TRIPOS>MOLECULE
IMPHY000779
 53 56 0 0 0
SMALL
GASTEIGER

@<TRIPOS>ATOM
      1 O           6.0682   -1.7500    0.0000 O.3     1  UNL1       -0.4800
      2 O           7.8003    0.2500    0.0000 O.3     1  UNL1       -0.4534
      3 O           4.3198    1.2846    0.0000 O.3     1  UNL1       -0.5063
      4 O           2.5381   -1.7742    0.0000 O.3     1  UNL1       -0.5065
      5 O           8.6663   -4.2500    0.0000 O.3     1  UNL1       -0.5033
      6 O           6.9343    1.7500    0.0000 O.2     1  UNL1       -0.2449
      7 O          10.3984   -3.2500    0.0000 O.3     1  UNL1       -0.5033
      8 O          11.2644    1.2500    0.0000 O.3     1  UNL1       -0.4913
      9 O           9.5323    4.2500    0.0000 O.3     1  UNL1       -0.5032
     10 O          11.2644    3.2500    0.0000 O.3     1  UNL1       -0.5009
     11 C           6.9343   -0.2500    0.0000 C.3     1  UNL1        0.1483
     12 C           6.9343   -1.2500    0.0000 C.3     1  UNL1        0.1622
     13 C           6.0682    0.2500    0.0000 C.3     1  UNL1        0.0204
     14 C           5.2022   -0.2500    0.0000 C.ar    1  UNL1        0.0395
     15 C           5.2022   -1.2500    0.0000 C.ar    1  UNL1        0.1318
     16 C           7.8003   -1.7500    0.0000 C.ar    1  UNL1       -0.0001
     17 C           4.3083    0.2847    0.0000 C.ar    1  UNL1        0.1271
     18 C           4.3083   -1.7847    0.0000 C.ar    1  UNL1        0.0221
     19 C           7.8003   -2.7500    0.0000 C.ar    1  UNL1       -0.0097
     20 C           8.6663   -1.2500    0.0000 C.ar    1  UNL1       -0.0513
     21 C           3.4022   -0.2292    0.0000 C.ar    1  UNL1        0.0218
     22 C           3.4022   -1.2708    0.0000 C.ar    1  UNL1        0.1238
     23 C           7.8003    1.2500    0.0000 C.2     1  UNL1        0.3398
     24 C           8.6663   -3.2500    0.0000 C.ar    1  UNL1        0.1586
     25 C           9.5323   -1.7500    0.0000 C.ar    1  UNL1       -0.0162
     26 C           9.5323   -2.7500    0.0000 C.ar    1  UNL1        0.1582
     27 C           8.6663    1.7500    0.0000 C.ar    1  UNL1        0.0661
     28 C           9.5323    1.2500    0.0000 C.ar    1  UNL1       -0.0021
     29 C           8.6663    2.7500    0.0000 C.ar    1  UNL1       -0.0023
     30 C          10.3984    1.7500    0.0000 C.ar    1  UNL1        0.1657
     31 C           9.5323    3.2500    0.0000 C.ar    1  UNL1        0.1628
     32 C          10.3984    2.7500    0.0000 C.ar    1  UNL1        0.2008
     33 C          12.1304    1.7500    0.0000 C.3     1  UNL1        0.0790
     34 H           6.9343    0.3700    0.0000 H       1  UNL1        0.0778
     35 H           6.9343   -1.8700    0.0000 H       1  UNL1        0.0822
     36 H           6.4668    0.7249    0.0000 H       1  UNL1        0.0353
     37 H           5.6697    0.7249    0.0000 H       1  UNL1        0.0353
     38 H           4.3154   -2.4046    0.0000 H       1  UNL1        0.0691
     39 H           7.2634   -3.0600    0.0000 H       1  UNL1        0.0659
     40 H           8.6663   -0.6300    0.0000 H       1  UNL1        0.0623
     41 H           2.8665    0.0829    0.0000 H       1  UNL1        0.0691
     42 H          10.0693   -1.4400    0.0000 H       1  UNL1        0.0655
     43 H           3.7865    1.6008    0.0000 H       1  UNL1        0.2921
     44 H           9.5323    0.6300    0.0000 H       1  UNL1        0.0663
     45 H           8.1294    3.0600    0.0000 H       1  UNL1        0.0663
     46 H           2.0000   -1.4662    0.0000 H       1  UNL1        0.2921
     47 H           9.2033   -4.5600    0.0000 H       1  UNL1        0.2923
     48 H          10.9353   -2.9400    0.0000 H       1  UNL1        0.2923
     49 H           8.9954    4.5600    0.0000 H       1  UNL1        0.2923
     50 H          11.2644    3.8700    0.0000 H       1  UNL1        0.2924
     51 H          12.4404    1.2131    0.0000 H       1  UNL1        0.0660
     52 H          12.6674    2.0600    0.0000 H       1  UNL1        0.0660
     53 H          11.8204    2.2869    0.0000 H       1  UNL1        0.0660
@<TRIPOS>BOND
     1     1    12    1
     2     1    15    1
     3    11     2    1
     4     2    23    1
     5     3    17    1
     6     3    43    1
     7     4    22    1
     8     4    46    1
     9     5    24    1
    10     5    47    1
    11     6    23    2
    12     7    26    1
    13     7    48    1
    14     8    30    1
    15     8    33    1
    16     9    31    1
    17     9    49    1
    18    10    32    1
    19    10    50    1
    20    11    12    1
    21    11    13    1
    22    11    34    1
    23    12    16    1
    24    12    35    1
    25    13    14    1
    26    13    36    1
    27    13    37    1
    28    14    15   ar
    29    14    17   ar
    30    15    18   ar
    31    16    19   ar
    32    16    20   ar
    33    17    21   ar
    34    18    22   ar
    35    18    38    1
    36    19    24   ar
    37    19    39    1
    38    20    25   ar
    39    20    40    1
    40    21    22   ar
    41    21    41    1
    42    23    27    1
    43    24    26   ar
    44    25    26   ar
    45    25    42    1
    46    27    28   ar
    47    27    29   ar
    48    28    30   ar
    49    28    44    1
    50    29    31   ar
    51    29    45    1
    52    30    32   ar
    53    31    32   ar
    54    33    51    1
    55    33    52    1
    56    33    53    1
