@<TRIPOS>MOLECULE
IMPHY008681
 38 40 0 0 0
SMALL
GASTEIGER

@<TRIPOS>ATOM
      1 O           6.3981   -0.9254    0.0000 O.3     1  UNL1       -0.4828
      2 O           6.3981    2.0746    0.0000 O.2     1  UNL1       -0.2917
      3 O           4.6497    2.1092    0.0000 O.3     1  UNL1       -0.5058
      4 O           2.8680   -0.9495    0.0000 O.3     1  UNL1       -0.4949
      5 O          10.7282   -2.4254    0.0000 O.3     1  UNL1       -0.4951
      6 C           7.2641   -0.4254    0.0000 C.3     1  UNL1        0.1322
      7 C           7.2641    0.5746    0.0000 C.3     1  UNL1        0.0520
      8 C           8.1301   -0.9254    0.0000 C.ar    1  UNL1       -0.0067
      9 C           5.5320    0.5746    0.0000 C.ar    1  UNL1        0.1007
     10 C           6.3981    1.0746    0.0000 C.2     1  UNL1        0.1740
     11 C           5.5320   -0.4254    0.0000 C.ar    1  UNL1        0.1389
     12 C           4.6381    1.1093    0.0000 C.ar    1  UNL1        0.1343
     13 C           4.6381   -0.9601    0.0000 C.ar    1  UNL1        0.0227
     14 C           8.9962   -0.4254    0.0000 C.ar    1  UNL1       -0.0516
     15 C           8.1301   -1.9254    0.0000 C.ar    1  UNL1       -0.0516
     16 C           3.7320   -0.4462    0.0000 C.ar    1  UNL1        0.1271
     17 C           3.7320    0.5954    0.0000 C.ar    1  UNL1        0.0225
     18 C           9.8622   -0.9254    0.0000 C.ar    1  UNL1       -0.0196
     19 C           8.9962   -2.4254    0.0000 C.ar    1  UNL1       -0.0196
     20 C           9.8622   -1.9254    0.0000 C.ar    1  UNL1        0.1201
     21 C           2.0000   -0.4529    0.0000 C.3     1  UNL1        0.0788
     22 C          11.5942   -1.9254    0.0000 C.3     1  UNL1        0.0788
     23 H           7.2641   -1.0454    0.0000 H       1  UNL1        0.0789
     24 H           7.8747    0.4669    0.0000 H       1  UNL1        0.0385
     25 H           7.4762    1.1572    0.0000 H       1  UNL1        0.0385
     26 H           4.6453   -1.5800    0.0000 H       1  UNL1        0.0691
     27 H           8.9962    0.1946    0.0000 H       1  UNL1        0.0623
     28 H           7.5932   -2.2354    0.0000 H       1  UNL1        0.0623
     29 H           3.1963    0.9075    0.0000 H       1  UNL1        0.0691
     30 H          10.3991   -0.6154    0.0000 H       1  UNL1        0.0654
     31 H           8.9962   -3.0454    0.0000 H       1  UNL1        0.0654
     32 H           4.1164    2.4254    0.0000 H       1  UNL1        0.2922
     33 H           2.3079    0.0852    0.0000 H       1  UNL1        0.0660
     34 H           1.4619   -0.1450    0.0000 H       1  UNL1        0.0660
     35 H           1.6921   -0.9910    0.0000 H       1  UNL1        0.0660
     36 H          11.9042   -2.4623    0.0000 H       1  UNL1        0.0660
     37 H          12.1312   -1.6154    0.0000 H       1  UNL1        0.0660
     38 H          11.2842   -1.3885    0.0000 H       1  UNL1        0.0660
@<TRIPOS>BOND
     1     1     6    1
     2     1    11    1
     3     2    10    2
     4     3    12    1
     5     3    32    1
     6     4    16    1
     7     4    21    1
     8     5    20    1
     9     5    22    1
    10     6     7    1
    11     6     8    1
    12     6    23    1
    13     7    10    1
    14     7    24    1
    15     7    25    1
    16     8    14   ar
    17     8    15   ar
    18     9    10    1
    19     9    11   ar
    20     9    12   ar
    21    11    13   ar
    22    12    17   ar
    23    13    16   ar
    24    13    26    1
    25    14    18   ar
    26    14    27    1
    27    15    19   ar
    28    15    28    1
    29    16    17   ar
    30    17    29    1
    31    18    20   ar
    32    18    30    1
    33    19    20   ar
    34    19    31    1
    35    21    33    1
    36    21    34    1
    37    21    35    1
    38    22    36    1
    39    22    37    1
    40    22    38    1
