@<TRIPOS>MOLECULE
IMPHY007113
 27 26 0 0 0
SMALL
GASTEIGER

@<TRIPOS>ATOM
      1 O           4.5981    1.1830    0.0000 O.2     1  UNL1       -0.2918
      2 C           3.7320   -0.3170    0.0000 C.3     1  UNL1        0.0451
      3 C           3.2320    0.5490    0.0000 C.3     1  UNL1       -0.0493
      4 C           4.2320   -1.1830    0.0000 C.3     1  UNL1       -0.0493
      5 C           4.5981    0.1830    0.0000 C.2     1  UNL1        0.1653
      6 C           2.8660   -0.8170    0.0000 C.2     1  UNL1       -0.0781
      7 C           5.4641   -0.3170    0.0000 C.2     1  UNL1       -0.0196
      8 C           6.3301    0.1830    0.0000 C.2     1  UNL1       -0.0724
      9 C           2.0000   -0.3170    0.0000 C.2     1  UNL1       -0.1017
     10 C           7.1962   -0.3170    0.0000 C.3     1  UNL1       -0.0437
     11 C           6.3301    1.1830    0.0000 C.3     1  UNL1       -0.0437
     12 H           3.7690    0.8590    0.0000 H       1  UNL1        0.0242
     13 H           2.9220    1.0860    0.0000 H       1  UNL1        0.0242
     14 H           2.6951    0.2390    0.0000 H       1  UNL1        0.0242
     15 H           3.6951   -1.4930    0.0000 H       1  UNL1        0.0242
     16 H           4.5420   -1.7200    0.0000 H       1  UNL1        0.0242
     17 H           4.7690   -0.8730    0.0000 H       1  UNL1        0.0242
     18 H           2.8660   -1.4370    0.0000 H       1  UNL1        0.0576
     19 H           5.4641   -0.9370    0.0000 H       1  UNL1        0.0652
     20 H           2.0000    0.3030    0.0000 H       1  UNL1        0.0532
     21 H           1.4631   -0.6270    0.0000 H       1  UNL1        0.0532
     22 H           6.8862   -0.8539    0.0000 H       1  UNL1        0.0274
     23 H           7.7331   -0.6270    0.0000 H       1  UNL1        0.0274
     24 H           7.5062    0.2199    0.0000 H       1  UNL1        0.0274
     25 H           6.9501    1.1830    0.0000 H       1  UNL1        0.0274
     26 H           6.3301    1.8030    0.0000 H       1  UNL1        0.0274
     27 H           5.7101    1.1830    0.0000 H       1  UNL1        0.0274
@<TRIPOS>BOND
     1     1     5    2
     2     2     3    1
     3     2     4    1
     4     2     5    1
     5     2     6    1
     6     3    12    1
     7     3    13    1
     8     3    14    1
     9     4    15    1
    10     4    16    1
    11     4    17    1
    12     5     7    1
    13     6     9    2
    14     6    18    1
    15     7     8    2
    16     7    19    1
    17     8    10    1
    18     8    11    1
    19     9    20    1
    20     9    21    1
    21    10    22    1
    22    10    23    1
    23    10    24    1
    24    11    25    1
    25    11    26    1
    26    11    27    1
