@<TRIPOS>MOLECULE
IMPHY014000
 36 37 0 0 0
SMALL
GASTEIGER

@<TRIPOS>ATOM
      1 O           5.4641   -1.0000    0.0000 O.3     1  UNL1       -0.3868
      2 N           6.3301    0.5000    0.0000 N.ar    1  UNL1       -0.2531
      3 N           6.3301    2.5000    0.0000 N.ar    1  UNL1       -0.2535
      4 C           4.5981    0.5000    0.0000 C.3     1  UNL1        0.0216
      5 C           4.5981   -0.5000    0.0000 C.3     1  UNL1        0.0856
      6 C           5.4641    1.0000    0.0000 C.ar    1  UNL1        0.0653
      7 C           3.7320   -1.0000    0.0000 C.ar    1  UNL1       -0.0188
      8 C           5.4641    2.0000    0.0000 C.ar    1  UNL1        0.0598
      9 C           7.1962    1.0000    0.0000 C.ar    1  UNL1        0.0595
     10 C           7.1962    2.0000    0.0000 C.ar    1  UNL1        0.0595
     11 C           2.8660   -0.5000    0.0000 C.ar    1  UNL1       -0.0561
     12 C           3.7320   -2.0000    0.0000 C.ar    1  UNL1       -0.0561
     13 C           4.5981    2.5000    0.0000 C.3     1  UNL1       -0.0206
     14 C           8.0622    0.5000    0.0000 C.3     1  UNL1       -0.0206
     15 C           8.0622    2.5000    0.0000 C.3     1  UNL1       -0.0206
     16 C           2.0000   -1.0000    0.0000 C.ar    1  UNL1       -0.0614
     17 C           2.8660   -2.5000    0.0000 C.ar    1  UNL1       -0.0614
     18 C           2.0000   -2.0000    0.0000 C.ar    1  UNL1       -0.0617
     19 H           4.3860    1.0826    0.0000 H       1  UNL1        0.0357
     20 H           3.9875    0.3923    0.0000 H       1  UNL1        0.0357
     21 H           4.5981   -1.1200    0.0000 H       1  UNL1        0.0647
     22 H           2.8660    0.1200    0.0000 H       1  UNL1        0.0621
     23 H           4.2690   -2.3100    0.0000 H       1  UNL1        0.0621
     24 H           4.9081    3.0369    0.0000 H       1  UNL1        0.0293
     25 H           4.0611    2.8100    0.0000 H       1  UNL1        0.0293
     26 H           4.2881    1.9631    0.0000 H       1  UNL1        0.0293
     27 H           5.4641   -1.6200    0.0000 H       1  UNL1        0.2102
     28 H           7.7522   -0.0369    0.0000 H       1  UNL1        0.0293
     29 H           8.5991    0.1900    0.0000 H       1  UNL1        0.0293
     30 H           8.3722    1.0369    0.0000 H       1  UNL1        0.0293
     31 H           8.3722    1.9631    0.0000 H       1  UNL1        0.0293
     32 H           8.5991    2.8100    0.0000 H       1  UNL1        0.0293
     33 H           7.7522    3.0369    0.0000 H       1  UNL1        0.0293
     34 H           1.4631   -0.6900    0.0000 H       1  UNL1        0.0618
     35 H           2.8660   -3.1200    0.0000 H       1  UNL1        0.0618
     36 H           1.4631   -2.3100    0.0000 H       1  UNL1        0.0618
@<TRIPOS>BOND
     1     1     5    1
     2     1    27    1
     3     2     6   ar
     4     2     9   ar
     5     3     8   ar
     6     3    10   ar
     7     4     5    1
     8     4     6    1
     9     4    19    1
    10     4    20    1
    11     5     7    1
    12     5    21    1
    13     6     8   ar
    14     7    11   ar
    15     7    12   ar
    16     8    13    1
    17     9    10   ar
    18     9    14    1
    19    10    15    1
    20    11    16   ar
    21    11    22    1
    22    12    17   ar
    23    12    23    1
    24    13    24    1
    25    13    25    1
    26    13    26    1
    27    14    28    1
    28    14    29    1
    29    14    30    1
    30    15    31    1
    31    15    32    1
    32    15    33    1
    33    16    18   ar
    34    16    34    1
    35    17    18   ar
    36    17    35    1
    37    18    36    1
