@<TRIPOS>MOLECULE
IMPHY008537
 54 57 0 0 0
SMALL
GASTEIGER

@<TRIPOS>ATOM
      1 O           5.1350   -2.7856    0.0000 O.3     1  UNL1       -0.3313
      2 O           6.8671   -2.7856    0.0000 O.3     1  UNL1       -0.4570
      3 O           5.1350   -5.7857    0.0000 O.3     1  UNL1       -0.3864
      4 O           3.4030   -4.7857    0.0000 O.3     1  UNL1       -0.3865
      5 O           6.8671   -4.7857    0.0000 O.3     1  UNL1       -0.3829
      6 O           2.5369   -3.2856    0.0000 O.3     1  UNL1       -0.3924
      7 O           8.6431    0.2212    0.0000 O.2     1  UNL1       -0.4620
      8 O           5.1350   -1.7856    0.0000 O.3     1  UNL1       -0.4914
      9 O           5.9793    1.7458    0.0000 O.2     1  UNL1       -0.2864
     10 O           7.7336    5.7836    0.0000 O.3     1  UNL1       -0.5068
     11 C           5.1350   -4.7857    0.0000 C.3     1  UNL1        0.1152
     12 C           4.2690   -4.2857    0.0000 C.3     1  UNL1        0.1120
     13 C           6.0010   -4.2857    0.0000 C.3     1  UNL1        0.1454
     14 C           4.2690   -3.2856    0.0000 C.3     1  UNL1        0.1140
     15 C           6.0010   -3.2856    0.0000 C.3     1  UNL1        0.2310
     16 C           3.4030   -2.7856    0.0000 C.3     1  UNL1        0.0731
     17 C           6.8671   -1.7856    0.0000 C.ar    1  UNL1        0.1689
     18 C           6.0010   -1.2856    0.0000 C.ar    1  UNL1        0.1625
     19 C           7.7331   -1.2856    0.0000 C.ar    1  UNL1        0.0268
     20 C           7.7331   -0.2856    0.0000 C.ar    1  UNL1        0.1421
     21 C           6.8671    0.2144    0.0000 C.ar    1  UNL1        0.0682
     22 C           6.0010   -0.2856    0.0000 C.ar    1  UNL1       -0.0019
     23 C           6.8510    1.2559    0.0000 C.ar    1  UNL1        0.2003
     24 C           7.7490    1.7836    0.0000 C.ar    1  UNL1        0.0643
     25 C           8.6511    1.2628    0.0000 C.ar    1  UNL1        0.1038
     26 C           7.7452    2.7836    0.0000 C.ar    1  UNL1       -0.0110
     27 C           4.2690   -1.2856    0.0000 C.3     1  UNL1        0.0790
     28 C           8.6093    3.2869    0.0000 C.ar    1  UNL1       -0.0504
     29 C           6.8772    3.2803    0.0000 C.ar    1  UNL1       -0.0504
     30 C           8.6054    4.2869    0.0000 C.ar    1  UNL1       -0.0196
     31 C           6.8734    4.2802    0.0000 C.ar    1  UNL1       -0.0196
     32 C           7.7375    4.7836    0.0000 C.ar    1  UNL1        0.1169
     33 H           5.6720   -5.0956    0.0000 H       1  UNL1        0.0648
     34 H           4.2690   -4.9056    0.0000 H       1  UNL1        0.0647
     35 H           6.5380   -3.9756    0.0000 H       1  UNL1        0.0683
     36 H           4.2690   -2.6656    0.0000 H       1  UNL1        0.0647
     37 H           6.0010   -2.6656    0.0000 H       1  UNL1        0.1084
     38 H           3.8015   -2.3107    0.0000 H       1  UNL1        0.0584
     39 H           3.0044   -2.3107    0.0000 H       1  UNL1        0.0584
     40 H           4.5981   -6.0956    0.0000 H       1  UNL1        0.2100
     41 H           3.4030   -5.4056    0.0000 H       1  UNL1        0.2100
     42 H           6.8671   -5.4056    0.0000 H       1  UNL1        0.2102
     43 H           2.0000   -2.9756    0.0000 H       1  UNL1        0.2095
     44 H           8.2700   -1.5956    0.0000 H       1  UNL1        0.0692
     45 H           5.4641    0.0244    0.0000 H       1  UNL1        0.0663
     46 H           9.1892    1.5707    0.0000 H       1  UNL1        0.1037
     47 H           4.5790   -0.7487    0.0000 H       1  UNL1        0.0660
     48 H           3.7320   -0.9756    0.0000 H       1  UNL1        0.0660
     49 H           3.9590   -1.8226    0.0000 H       1  UNL1        0.0660
     50 H           9.1474    2.9790    0.0000 H       1  UNL1        0.0625
     51 H           6.3415    2.9682    0.0000 H       1  UNL1        0.0625
     52 H           9.1412    4.5990    0.0000 H       1  UNL1        0.0654
     53 H           6.3353    4.5882    0.0000 H       1  UNL1        0.0654
     54 H           8.2694    6.0956    0.0000 H       1  UNL1        0.2921
@<TRIPOS>BOND
     1     1    14    1
     2     1    15    1
     3    15     2    1
     4     2    17    1
     5    11     3    1
     6     3    40    1
     7    12     4    1
     8     4    41    1
     9    13     5    1
    10     5    42    1
    11     6    16    1
    12     6    43    1
    13     7    20   ar
    14     7    25   ar
    15     8    18    1
    16     8    27    1
    17     9    23    2
    18    10    32    1
    19    10    54    1
    20    11    12    1
    21    11    13    1
    22    11    33    1
    23    12    14    1
    24    12    34    1
    25    13    15    1
    26    13    35    1
    27    14    16    1
    28    14    36    1
    29    15    37    1
    30    16    38    1
    31    16    39    1
    32    17    18   ar
    33    17    19   ar
    34    18    22   ar
    35    19    20   ar
    36    19    44    1
    37    20    21   ar
    38    21    22   ar
    39    21    23   ar
    40    22    45    1
    41    23    24   ar
    42    24    25   ar
    43    24    26    1
    44    25    46    1
    45    26    28   ar
    46    26    29   ar
    47    27    47    1
    48    27    48    1
    49    27    49    1
    50    28    30   ar
    51    28    50    1
    52    29    31   ar
    53    29    51    1
    54    30    32   ar
    55    30    52    1
    56    31    32   ar
    57    31    53    1
