@<TRIPOS>MOLECULE
IMPHY003389
 32 34 0 0 0
SMALL
GASTEIGER

@<TRIPOS>ATOM
      1 O           9.3554    0.6827    0.0000 O.3     1  UNL1       -0.4944
      2 O           2.9789   -1.2654    0.0000 O.3     1  UNL1       -0.4951
      3 O           8.4097   -2.2152    0.0000 O.2     1  UNL1       -0.2956
      4 N           5.8507    1.5952    0.0000 N.ar    1  UNL1       -0.3540
      5 C           6.3507    0.0564    0.0000 C.ar    1  UNL1        0.0084
      6 C           5.3507    0.0564    0.0000 C.ar    1  UNL1        0.0109
      7 C           6.6597    1.0074    0.0000 C.ar    1  UNL1        0.0510
      8 C           5.0417    1.0074    0.0000 C.ar    1  UNL1        0.0477
      9 C           7.0356   -0.7284    0.0000 C.ar    1  UNL1       -0.0383
     10 C           7.6751    1.2397    0.0000 C.ar    1  UNL1        0.0047
     11 C           4.6657   -0.7284    0.0000 C.ar    1  UNL1       -0.0102
     12 C           4.0263    1.2397    0.0000 C.ar    1  UNL1       -0.0343
     13 C           8.0562   -0.5196    0.0000 C.ar    1  UNL1        0.0565
     14 C           8.3780    0.4710    0.0000 C.ar    1  UNL1        0.1322
     15 C           3.6452   -0.5196    0.0000 C.ar    1  UNL1        0.1208
     16 C           3.3233    0.4710    0.0000 C.ar    1  UNL1       -0.0180
     17 C           8.7224   -1.2654    0.0000 C.2     1  UNL1        0.1537
     18 C           9.6607    1.6349    0.0000 C.3     1  UNL1        0.0788
     19 C           2.0000   -1.0612    0.0000 C.3     1  UNL1        0.0788
     20 H           5.8507    2.2152    0.0000 H       1  UNL1        0.1659
     21 H           6.8372   -1.3158    0.0000 H       1  UNL1        0.0632
     22 H           7.8599    1.8315    0.0000 H       1  UNL1        0.0675
     23 H           4.8641   -1.3158    0.0000 H       1  UNL1        0.0661
     24 H           3.8415    1.8315    0.0000 H       1  UNL1        0.0639
     25 H           2.7174    0.6022    0.0000 H       1  UNL1        0.0655
     26 H           9.3294   -1.1388    0.0000 H       1  UNL1        0.1083
     27 H          10.2511    1.4456    0.0000 H       1  UNL1        0.0660
     28 H           9.8500    2.2253    0.0000 H       1  UNL1        0.0660
     29 H           9.0703    1.8242    0.0000 H       1  UNL1        0.0660
     30 H           2.1266   -0.4543    0.0000 H       1  UNL1        0.0660
     31 H           1.3931   -0.9347    0.0000 H       1  UNL1        0.0660
     32 H           1.8734   -1.6682    0.0000 H       1  UNL1        0.0660
@<TRIPOS>BOND
     1     1    14    1
     2     1    18    1
     3     2    15    1
     4     2    19    1
     5     3    17    2
     6     4     7   ar
     7     4     8   ar
     8     4    20    1
     9     5     6   ar
    10     5     7   ar
    11     5     9   ar
    12     6     8   ar
    13     6    11   ar
    14     7    10   ar
    15     8    12   ar
    16     9    13   ar
    17     9    21    1
    18    10    14   ar
    19    10    22    1
    20    11    15   ar
    21    11    23    1
    22    12    16   ar
    23    12    24    1
    24    13    14   ar
    25    13    17    1
    26    15    16   ar
    27    16    25    1
    28    17    26    1
    29    18    27    1
    30    18    28    1
    31    18    29    1
    32    19    30    1
    33    19    31    1
    34    19    32    1
