@<TRIPOS>MOLECULE
IMPHY005823
 78 81 0 0 0
SMALL
GASTEIGER

@<TRIPOS>ATOM
      1 O           2.0000   -3.6598    0.0000 O.2     1  UNL1       -0.2974
      2 C           7.3931   -0.6074    0.0000 C.3     1  UNL1       -0.0225
      3 C           7.3931   -1.6074    0.0000 C.3     1  UNL1       -0.0140
      4 C           8.3393   -0.3027    0.0000 C.3     1  UNL1       -0.0325
      5 C           5.6610   -1.6074    0.0000 C.3     1  UNL1       -0.0139
      6 C           4.7510   -2.1143    0.0000 C.3     1  UNL1       -0.0217
      7 C           6.5271   -2.1074    0.0000 C.2     1  UNL1       -0.0662
      8 C           6.5271   -0.1074    0.0000 C.3     1  UNL1       -0.0463
      9 C           8.3393   -1.9122    0.0000 C.3     1  UNL1       -0.0457
     10 C           5.6610   -0.6074    0.0000 C.3     1  UNL1       -0.0455
     11 C           8.9229   -1.1074    0.0000 C.3     1  UNL1       -0.0489
     12 C           4.7430   -3.1559    0.0000 C.3     1  UNL1       -0.0250
     13 C           8.6500    0.6478    0.0000 C.3     1  UNL1       -0.0405
     14 C           7.3931    0.3926    0.0000 C.3     1  UNL1       -0.0588
     15 C           3.8242   -1.5502    0.0000 C.3     1  UNL1       -0.0401
     16 C           5.6451   -3.6767    0.0000 C.3     1  UNL1       -0.0307
     17 C           6.5431   -3.1489    0.0000 C.2     1  UNL1       -0.0839
     18 C           4.7587   -1.1143    0.0000 C.3     1  UNL1       -0.0587
     19 C           3.8076   -3.7056    0.0000 C.3     1  UNL1        0.0094
     20 C           9.6285    0.8540    0.0000 C.3     1  UNL1       -0.0499
     21 C           2.8763   -2.0781    0.0000 C.3     1  UNL1        0.0064
     22 C           7.9821    1.3921    0.0000 C.3     1  UNL1       -0.0621
     23 C           2.8680   -3.1631    0.0000 C.2     1  UNL1        0.1337
     24 C           9.9391    1.8046    0.0000 C.3     1  UNL1       -0.0497
     25 C          10.9176    2.0108    0.0000 C.3     1  UNL1       -0.0389
     26 C          11.2283    2.9613    0.0000 C.3     1  UNL1       -0.0439
     27 C          11.5855    1.2665    0.0000 C.3     1  UNL1       -0.0528
     28 C          12.2068    3.1675    0.0000 C.3     1  UNL1       -0.0624
     29 C          10.5605    3.7056    0.0000 C.3     1  UNL1       -0.0624
     30 C          12.5640    1.4727    0.0000 C.3     1  UNL1       -0.0650
     31 H           7.4830   -2.4527    0.0000 H       1  UNL1        0.0351
     32 H           9.1790   -0.1708    0.0000 H       1  UNL1        0.0309
     33 H           6.3972   -1.1824    0.0000 H       1  UNL1        0.0351
     34 H           6.9256    0.3675    0.0000 H       1  UNL1        0.0271
     35 H           6.1285    0.3675    0.0000 H       1  UNL1        0.0271
     36 H           8.0883   -2.4791    0.0000 H       1  UNL1        0.0271
     37 H           8.8767   -2.2214    0.0000 H       1  UNL1        0.0271
     38 H           5.4490   -0.0248    0.0000 H       1  UNL1        0.0271
     39 H           5.0504   -0.7151    0.0000 H       1  UNL1        0.0271
     40 H           9.3838   -1.5222    0.0000 H       1  UNL1        0.0268
     41 H           9.3838   -0.6927    0.0000 H       1  UNL1        0.0268
     42 H           4.7463   -4.0059    0.0000 H       1  UNL1        0.0313
     43 H           8.0433    0.5200    0.0000 H       1  UNL1        0.0301
     44 H           8.0131    0.3926    0.0000 H       1  UNL1        0.0235
     45 H           7.3931    1.0126    0.0000 H       1  UNL1        0.0235
     46 H           6.7731    0.3926    0.0000 H       1  UNL1        0.0235
     47 H           4.2324   -1.0835    0.0000 H       1  UNL1        0.0275
     48 H           3.4343   -1.0682    0.0000 H       1  UNL1        0.0275
     49 H           5.2478   -4.1527    0.0000 H       1  UNL1        0.0310
     50 H           6.0460   -4.1496    0.0000 H       1  UNL1        0.0310
     51 H           7.0836   -3.4527    0.0000 H       1  UNL1        0.0572
     52 H           5.3787   -1.1191    0.0000 H       1  UNL1        0.0235
     53 H           4.7635   -0.4943    0.0000 H       1  UNL1        0.0235
     54 H           4.1388   -1.1095    0.0000 H       1  UNL1        0.0235
     55 H           3.4103   -4.1816    0.0000 H       1  UNL1        0.0344
     56 H           4.2085   -4.1785    0.0000 H       1  UNL1        0.0344
     57 H           9.6490    0.2344    0.0000 H       1  UNL1        0.0268
     58 H          10.2423    0.7667    0.0000 H       1  UNL1        0.0268
     59 H           2.6718   -1.4929    0.0000 H       1  UNL1        0.0342
     60 H           2.2647   -2.1795    0.0000 H       1  UNL1        0.0342
     61 H           8.4436    1.8062    0.0000 H       1  UNL1        0.0233
     62 H           7.5681    1.8536    0.0000 H       1  UNL1        0.0233
     63 H           7.5207    0.9781    0.0000 H       1  UNL1        0.0233
     64 H           9.9186    2.4242    0.0000 H       1  UNL1        0.0268
     65 H           9.3253    1.8919    0.0000 H       1  UNL1        0.0268
     66 H          10.7250    1.4215    0.0000 H       1  UNL1        0.0303
     67 H          11.4209    3.5506    0.0000 H       1  UNL1        0.0298
     68 H          11.0591    0.9388    0.0000 H       1  UNL1        0.0265
     69 H          11.8167    0.6912    0.0000 H       1  UNL1        0.0265
     70 H          12.3347    2.5608    0.0000 H       1  UNL1        0.0232
     71 H          12.8135    3.2954    0.0000 H       1  UNL1        0.0232
     72 H          12.0790    3.7742    0.0000 H       1  UNL1        0.0232
     73 H          11.0219    4.1197    0.0000 H       1  UNL1        0.0232
     74 H          10.1464    4.1671    0.0000 H       1  UNL1        0.0232
     75 H          10.0990    3.2915    0.0000 H       1  UNL1        0.0232
     76 H          12.6918    0.8660    0.0000 H       1  UNL1        0.0230
     77 H          13.1707    1.6006    0.0000 H       1  UNL1        0.0230
     78 H          12.4361    2.0794    0.0000 H       1  UNL1        0.0230
@<TRIPOS>BOND
     1     1    23    2
     2     2     3    1
     3     2     4    1
     4     2     8    1
     5     2    14    1
     6     3     7    1
     7     3     9    1
     8     3    31    1
     9     4    11    1
    10     4    13    1
    11     4    32    1
    12     5     6    1
    13     5     7    1
    14     5    10    1
    15     5    33    1
    16     6    12    1
    17     6    15    1
    18     6    18    1
    19     7    17    2
    20     8    10    1
    21     8    34    1
    22     8    35    1
    23     9    11    1
    24     9    36    1
    25     9    37    1
    26    10    38    1
    27    10    39    1
    28    11    40    1
    29    11    41    1
    30    12    16    1
    31    12    19    1
    32    12    42    1
    33    13    20    1
    34    13    22    1
    35    13    43    1
    36    14    44    1
    37    14    45    1
    38    14    46    1
    39    15    21    1
    40    15    47    1
    41    15    48    1
    42    16    17    1
    43    16    49    1
    44    16    50    1
    45    17    51    1
    46    18    52    1
    47    18    53    1
    48    18    54    1
    49    19    23    1
    50    19    55    1
    51    19    56    1
    52    20    24    1
    53    20    57    1
    54    20    58    1
    55    21    23    1
    56    21    59    1
    57    21    60    1
    58    22    61    1
    59    22    62    1
    60    22    63    1
    61    25    24    1
    62    24    64    1
    63    24    65    1
    64    25    26    1
    65    25    27    1
    66    25    66    1
    67    26    28    1
    68    26    29    1
    69    26    67    1
    70    27    30    1
    71    27    68    1
    72    27    69    1
    73    28    70    1
    74    28    71    1
    75    28    72    1
    76    29    73    1
    77    29    74    1
    78    29    75    1
    79    30    76    1
    80    30    77    1
    81    30    78    1
