@<TRIPOS>MOLECULE
IMPHY006356
 86 89 0 0 0
SMALL
GASTEIGER

@<TRIPOS>ATOM
      1 O           3.7320   -3.1598    0.0000 O.3     1  UNL1       -0.4613
      2 O           2.8718   -1.6564    0.0000 O.2     1  UNL1       -0.2512
      3 C           9.1251   -0.1074    0.0000 C.3     1  UNL1       -0.0225
      4 C           9.1251   -1.1074    0.0000 C.3     1  UNL1       -0.0140
      5 C           6.4831   -1.6143    0.0000 C.3     1  UNL1       -0.0220
      6 C           7.3931   -1.1074    0.0000 C.3     1  UNL1       -0.0139
      7 C          10.0713    0.1973    0.0000 C.3     1  UNL1       -0.0325
      8 C           8.2591   -1.6074    0.0000 C.2     1  UNL1       -0.0662
      9 C           6.4750   -2.6559    0.0000 C.3     1  UNL1       -0.0257
     10 C           8.2591    0.3926    0.0000 C.3     1  UNL1       -0.0463
     11 C           7.3931   -0.1074    0.0000 C.3     1  UNL1       -0.0455
     12 C          10.0713   -1.4122    0.0000 C.3     1  UNL1       -0.0457
     13 C          10.6550   -0.6074    0.0000 C.3     1  UNL1       -0.0489
     14 C           5.5562   -1.0502    0.0000 C.3     1  UNL1       -0.0435
     15 C           5.5396   -3.2056    0.0000 C.3     1  UNL1       -0.0030
     16 C           7.3771   -3.1767    0.0000 C.3     1  UNL1       -0.0308
     17 C          10.3820    1.1478    0.0000 C.3     1  UNL1       -0.0405
     18 C           9.1251    0.8926    0.0000 C.3     1  UNL1       -0.0588
     19 C           8.2752   -2.6489    0.0000 C.2     1  UNL1       -0.0839
     20 C           6.4908   -0.6143    0.0000 C.3     1  UNL1       -0.0587
     21 C           4.6000   -2.6631    0.0000 C.3     1  UNL1        0.1059
     22 C           4.6084   -1.5782    0.0000 C.3     1  UNL1       -0.0149
     23 C          11.3605    1.3540    0.0000 C.3     1  UNL1       -0.0497
     24 C           5.5435   -4.2056    0.0000 C.3     1  UNL1       -0.0588
     25 C           9.7142    1.8921    0.0000 C.3     1  UNL1       -0.0621
     26 C          11.6712    2.3046    0.0000 C.3     1  UNL1       -0.0463
     27 C          12.6497    2.5108    0.0000 C.3     1  UNL1       -0.0207
     28 C           2.8680   -2.6564    0.0000 C.2     1  UNL1        0.3042
     29 C          13.3175    1.7665    0.0000 C.3     1  UNL1       -0.0494
     30 C          12.9603    3.4613    0.0000 C.2     1  UNL1       -0.0766
     31 C           2.0000   -3.1531    0.0000 C.3     1  UNL1        0.0332
     32 C          14.2960    1.9727    0.0000 C.3     1  UNL1       -0.0647
     33 C          13.9388    3.6675    0.0000 C.3     1  UNL1       -0.0438
     34 C          12.2925    4.2056    0.0000 C.2     1  UNL1       -0.0994
     35 H           9.2151   -1.9527    0.0000 H       1  UNL1        0.0351
     36 H           8.1292   -0.6824    0.0000 H       1  UNL1        0.0351
     37 H          10.9110    0.3292    0.0000 H       1  UNL1        0.0309
     38 H           6.4783   -3.5059    0.0000 H       1  UNL1        0.0313
     39 H           8.6576    0.8675    0.0000 H       1  UNL1        0.0271
     40 H           7.8606    0.8675    0.0000 H       1  UNL1        0.0271
     41 H           7.1810    0.4752    0.0000 H       1  UNL1        0.0271
     42 H           6.7825   -0.2151    0.0000 H       1  UNL1        0.0271
     43 H           9.8203   -1.9791    0.0000 H       1  UNL1        0.0271
     44 H          10.6087   -1.7214    0.0000 H       1  UNL1        0.0271
     45 H          11.1158   -1.0222    0.0000 H       1  UNL1        0.0268
     46 H          11.1158   -0.1927    0.0000 H       1  UNL1        0.0268
     47 H           5.9644   -0.5835    0.0000 H       1  UNL1        0.0272
     48 H           5.1663   -0.5682    0.0000 H       1  UNL1        0.0272
     49 H           5.0033   -3.5166    0.0000 H       1  UNL1        0.0337
     50 H           6.9798   -3.6527    0.0000 H       1  UNL1        0.0310
     51 H           7.7781   -3.6496    0.0000 H       1  UNL1        0.0310
     52 H          10.6461    1.9558    0.0000 H       1  UNL1        0.0301
     53 H           9.7451    0.8926    0.0000 H       1  UNL1        0.0235
     54 H           9.1251    1.5126    0.0000 H       1  UNL1        0.0235
     55 H           8.5051    0.8926    0.0000 H       1  UNL1        0.0235
     56 H           8.8156   -2.9527    0.0000 H       1  UNL1        0.0572
     57 H           7.1108   -0.6191    0.0000 H       1  UNL1        0.0235
     58 H           6.4956    0.0057    0.0000 H       1  UNL1        0.0235
     59 H           5.8708   -0.6095    0.0000 H       1  UNL1        0.0235
     60 H           3.8663   -2.2339    0.0000 H       1  UNL1        0.0736
     61 H           4.4038   -0.9929    0.0000 H       1  UNL1        0.0301
     62 H           3.9967   -1.6795    0.0000 H       1  UNL1        0.0301
     63 H          11.3811    0.7344    0.0000 H       1  UNL1        0.0268
     64 H          11.9743    1.2667    0.0000 H       1  UNL1        0.0268
     65 H           4.9235   -4.2080    0.0000 H       1  UNL1        0.0234
     66 H           5.5459   -4.8256    0.0000 H       1  UNL1        0.0234
     67 H           6.1635   -4.2032    0.0000 H       1  UNL1        0.0234
     68 H          10.1756    2.3062    0.0000 H       1  UNL1        0.0233
     69 H           9.3001    2.3536    0.0000 H       1  UNL1        0.0233
     70 H           9.2527    1.4781    0.0000 H       1  UNL1        0.0233
     71 H          11.6506    2.9242    0.0000 H       1  UNL1        0.0271
     72 H          11.0574    2.3919    0.0000 H       1  UNL1        0.0271
     73 H          12.4571    1.9214    0.0000 H       1  UNL1        0.0345
     74 H          12.7912    1.4388    0.0000 H       1  UNL1        0.0268
     75 H          13.5488    1.1912    0.0000 H       1  UNL1        0.0268
     76 H           1.6921   -2.6150    0.0000 H       1  UNL1        0.0342
     77 H           1.4619   -3.4610    0.0000 H       1  UNL1        0.0342
     78 H           2.3079   -3.6912    0.0000 H       1  UNL1        0.0342
     79 H          14.4239    1.3660    0.0000 H       1  UNL1        0.0230
     80 H          14.9027    2.1006    0.0000 H       1  UNL1        0.0230
     81 H          14.1682    2.5794    0.0000 H       1  UNL1        0.0230
     82 H          14.0667    3.0608    0.0000 H       1  UNL1        0.0274
     83 H          14.5455    3.7954    0.0000 H       1  UNL1        0.0274
     84 H          13.8110    4.2742    0.0000 H       1  UNL1        0.0274
     85 H          12.4851    4.7949    0.0000 H       1  UNL1        0.0534
     86 H          11.6858    4.0777    0.0000 H       1  UNL1        0.0534
@<TRIPOS>BOND
     1     1    21    1
     2     1    28    1
     3     2    28    2
     4     3     4    1
     5     3     7    1
     6     3    10    1
     7     3    18    1
     8     4     8    1
     9     4    12    1
    10     4    35    1
    11     5     6    1
    12     5     9    1
    13     5    14    1
    14     5    20    1
    15     6     8    1
    16     6    11    1
    17     6    36    1
    18     7    13    1
    19     7    17    1
    20     7    37    1
    21     8    19    2
    22     9    15    1
    23     9    16    1
    24     9    38    1
    25    10    11    1
    26    10    39    1
    27    10    40    1
    28    11    41    1
    29    11    42    1
    30    12    13    1
    31    12    43    1
    32    12    44    1
    33    13    45    1
    34    13    46    1
    35    14    22    1
    36    14    47    1
    37    14    48    1
    38    15    21    1
    39    15    24    1
    40    15    49    1
    41    16    19    1
    42    16    50    1
    43    16    51    1
    44    17    23    1
    45    17    25    1
    46    17    52    1
    47    18    53    1
    48    18    54    1
    49    18    55    1
    50    19    56    1
    51    20    57    1
    52    20    58    1
    53    20    59    1
    54    21    22    1
    55    21    60    1
    56    22    61    1
    57    22    62    1
    58    23    26    1
    59    23    63    1
    60    23    64    1
    61    24    65    1
    62    24    66    1
    63    24    67    1
    64    25    68    1
    65    25    69    1
    66    25    70    1
    67    27    26    1
    68    26    71    1
    69    26    72    1
    70    27    29    1
    71    27    30    1
    72    27    73    1
    73    28    31    1
    74    29    32    1
    75    29    74    1
    76    29    75    1
    77    30    33    1
    78    30    34    2
    79    31    76    1
    80    31    77    1
    81    31    78    1
    82    32    79    1
    83    32    80    1
    84    32    81    1
    85    33    82    1
    86    33    83    1
    87    33    84    1
    88    34    85    1
    89    34    86    1
