@<TRIPOS>MOLECULE
IMPHY009218
 122 134 0 0 0
SMALL
GASTEIGER

@<TRIPOS>ATOM
      1 O          13.6131   -0.7912    0.0000 O.3     1  UNL1       -0.4750
      2 O          10.9943    0.1639    0.0000 O.3     1  UNL1       -0.4562
      3 O          10.2687   -2.3047    0.0000 O.3     1  UNL1       -0.4502
      4 O          14.2177   -1.3431    0.0000 O.2     1  UNL1       -0.2844
      5 O          14.5560   -2.8400    0.0000 O.2     1  UNL1       -0.5031
      6 O          12.3850    1.1451    0.0000 O.2     1  UNL1       -0.2500
      7 O           8.6776   -0.4103    0.0000 O.3     1  UNL1       -0.4501
      8 O          13.8507    4.7999    0.0000 O.3     1  UNL1       -0.4811
      9 O           9.8610    1.8181    0.0000 O.3     1  UNL1       -0.5062
     10 O           8.1063   -3.3446    0.0000 O.3     1  UNL1       -0.4505
     11 O          17.3433    3.5448    0.0000 O.3     1  UNL1       -0.3875
     12 O          14.0701   -5.1192    0.0000 O.3     1  UNL1       -0.5028
     13 O          10.2091   -4.2011    0.0000 O.2     1  UNL1       -0.2449
     14 O           6.1936   -2.7700    0.0000 O.3     1  UNL1       -0.4573
     15 O          13.2250   -6.8466    0.0000 O.3     1  UNL1       -0.5009
     16 O          11.8368   -7.1604    0.0000 O.3     1  UNL1       -0.5028
     17 O           8.6927    1.2520    0.0000 O.2     1  UNL1       -0.2449
     18 O           7.5493   -4.7957    0.0000 O.2     1  UNL1       -0.2449
     19 O          10.7199   -7.2818    0.0000 O.3     1  UNL1       -0.5028
     20 O           9.3932   -8.0925    0.0000 O.3     1  UNL1       -0.5009
     21 O          15.3171    8.3403    0.0000 O.3     1  UNL1       -0.5032
     22 O          18.3924    6.7458    0.0000 O.3     1  UNL1       -0.5032
     23 O           4.5327   -2.6998    0.0000 O.2     1  UNL1       -0.2449
     24 O           7.5220   -7.2594    0.0000 O.3     1  UNL1       -0.5032
     25 O          17.3150    8.4308    0.0000 O.3     1  UNL1       -0.5009
     26 O           4.2943    1.3273    0.0000 O.3     1  UNL1       -0.5028
     27 O           7.0748    3.7282    0.0000 O.3     1  UNL1       -0.5032
     28 O           4.9852    3.3376    0.0000 O.3     1  UNL1       -0.5009
     29 O           4.6831    1.6966    0.0000 O.3     1  UNL1       -0.5028
     30 O           2.6401    1.1097    0.0000 O.3     1  UNL1       -0.5009
     31 O           2.1427   -0.9570    0.0000 O.3     1  UNL1       -0.5032
     32 C          12.2852   -1.4841    0.0000 C.3     1  UNL1        0.2027
     33 C          11.4761   -0.8963    0.0000 C.3     1  UNL1        0.0801
     34 C          12.7852   -2.3501    0.0000 C.3     1  UNL1        0.1332
     35 C          10.4980   -0.6884    0.0000 C.3     1  UNL1        0.1545
     36 C          11.7247    0.5807    0.0000 C.ar    1  UNL1        0.0471
     37 C          13.2710   -1.6652    0.0000 C.2     1  UNL1        0.2424
     38 C           9.5198   -0.8963    0.0000 C.3     1  UNL1        0.1809
     39 C          12.8897   -3.3446    0.0000 C.2     1  UNL1        0.0272
     40 C          13.2207    0.6543    0.0000 C.ar    1  UNL1        0.1359
     41 C          11.9783    0.2315    0.0000 C.2     1  UNL1        0.3195
     42 C          13.5808   -2.6186    0.0000 C.2     1  UNL1        0.1683
     43 C           8.7108   -1.4841    0.0000 C.3     1  UNL1        0.1834
     44 C          13.9548    2.0310    0.0000 C.ar    1  UNL1        0.0390
     45 C          10.8591    1.8787    0.0000 C.ar    1  UNL1        0.1275
     46 C          12.5807   -4.2957    0.0000 C.ar    1  UNL1        0.0426
     47 C          13.1195    3.3486    0.0000 C.ar    1  UNL1        0.1317
     48 C          15.5794    2.0732    0.0000 C.3     1  UNL1        0.0092
     49 C           8.2108   -2.3501    0.0000 C.3     1  UNL1        0.1774
     50 C          11.5612    3.2720    0.0000 C.ar    1  UNL1        0.0224
     51 C          11.9115   -5.0388    0.0000 C.ar    1  UNL1        0.0815
     52 C          16.3440    3.5072    0.0000 C.3     1  UNL1        0.1004
     53 C          11.0663   -3.6861    0.0000 C.2     1  UNL1        0.3411
     54 C          15.4739    4.8797    0.0000 C.3     1  UNL1        0.1514
     55 C          13.0706   -5.1516    0.0000 C.ar    1  UNL1        0.1705
     56 C          10.9980   -5.4456    0.0000 C.ar    1  UNL1        0.0464
     57 C           7.2643   -2.8582    0.0000 C.3     1  UNL1        0.1333
     58 C          12.6372   -6.0376    0.0000 C.ar    1  UNL1        0.2019
     59 C          11.6607   -6.1760    0.0000 C.ar    1  UNL1        0.1708
     60 C          15.9342    5.7675    0.0000 C.ar    1  UNL1        0.0023
     61 C           9.9980   -5.4456    0.0000 C.ar    1  UNL1        0.0458
     62 C           8.0659    0.4729    0.0000 C.2     1  UNL1        0.3405
     63 C           9.0844   -5.0388    0.0000 C.ar    1  UNL1        0.0740
     64 C           8.4153   -4.2957    0.0000 C.2     1  UNL1        0.3405
     65 C          10.1228   -6.4797    0.0000 C.ar    1  UNL1        0.1708
     66 C          16.9331    5.8128    0.0000 C.ar    1  UNL1       -0.0095
     67 C          15.3955    6.6100    0.0000 C.ar    1  UNL1       -0.0095
     68 C           7.0722    0.8814    0.0000 C.ar    1  UNL1        0.0740
     69 C           8.2324   -5.6380    0.0000 C.ar    1  UNL1       -0.0017
     70 C           5.3430   -2.1138    0.0000 C.2     1  UNL1        0.3401
     71 C           9.2849   -7.0984    0.0000 C.ar    1  UNL1        0.2012
     72 C           6.0162    0.6839    0.0000 C.ar    1  UNL1        0.0458
     73 C          15.8558    7.4978    0.0000 C.ar    1  UNL1        0.1623
     74 C          17.3934    6.7005    0.0000 C.ar    1  UNL1        0.1623
     75 C           8.3333   -6.6747    0.0000 C.ar    1  UNL1        0.1628
     76 C           7.4603    1.9310    0.0000 C.ar    1  UNL1       -0.0017
     77 C           4.9860   -1.1005    0.0000 C.ar    1  UNL1        0.0740
     78 C          16.8547    7.5430    0.0000 C.ar    1  UNL1        0.2006
     79 C           5.2373   -0.0560    0.0000 C.ar    1  UNL1        0.0458
     80 C           5.2751    1.5224    0.0000 C.ar    1  UNL1        0.1708
     81 C           6.7388    2.7864    0.0000 C.ar    1  UNL1        0.1628
     82 C           5.6388    2.5807    0.0000 C.ar    1  UNL1        0.2012
     83 C           3.9178   -1.4343    0.0000 C.ar    1  UNL1       -0.0017
     84 C           4.4380    0.7272    0.0000 C.ar    1  UNL1        0.1708
     85 C           3.1006   -0.6698    0.0000 C.ar    1  UNL1        0.1628
     86 C           3.3624    0.4182    0.0000 C.ar    1  UNL1        0.2012
     87 H          12.0501   -0.6618    0.0000 H       1  UNL1        0.0433
     88 H          13.3923   -2.2246    0.0000 H       1  UNL1        0.0509
     89 H          10.1345   -0.1861    0.0000 H       1  UNL1        0.0780
     90 H           9.2677   -0.3299    0.0000 H       1  UNL1        0.0811
     91 H           8.9837   -0.9274    0.0000 H       1  UNL1        0.0812
     92 H          15.4892    1.4598    0.0000 H       1  UNL1        0.0342
     93 H          16.1683    1.8794    0.0000 H       1  UNL1        0.0342
     94 H           7.8652   -2.8648    0.0000 H       1  UNL1        0.0808
     95 H          11.2232    3.7918    0.0000 H       1  UNL1        0.0691
     96 H          16.6326    4.0560    0.0000 H       1  UNL1        0.0637
     97 H          15.1389    5.4014    0.0000 H       1  UNL1        0.0811
     98 H          14.9772   -2.3850    0.0000 H       1  UNL1        0.2923
     99 H           7.0148   -3.4258    0.0000 H       1  UNL1        0.0736
    100 H           7.1379   -2.2513    0.0000 H       1  UNL1        0.0736
    101 H           9.5190    2.3352    0.0000 H       1  UNL1        0.2921
    102 H          17.6733    3.0199    0.0000 H       1  UNL1        0.2100
    103 H          14.3973   -5.6458    0.0000 H       1  UNL1        0.2923
    104 H          17.2671    5.2904    0.0000 H       1  UNL1        0.0659
    105 H          14.7761    6.5819    0.0000 H       1  UNL1        0.0659
    106 H          13.8416   -6.7818    0.0000 H       1  UNL1        0.2924
    107 H          12.4199   -7.3710    0.0000 H       1  UNL1        0.2923
    108 H           7.6690   -5.3793    0.0000 H       1  UNL1        0.0664
    109 H           8.0710    2.0379    0.0000 H       1  UNL1        0.0664
    110 H          10.4743   -7.8511    0.0000 H       1  UNL1        0.2923
    111 H           3.7798   -2.0387    0.0000 H       1  UNL1        0.0664
    112 H           8.8930   -8.4589    0.0000 H       1  UNL1        0.2924
    113 H          14.6977    8.3122    0.0000 H       1  UNL1        0.2923
    114 H          18.7264    6.2234    0.0000 H       1  UNL1        0.2923
    115 H           6.9566   -7.0050    0.0000 H       1  UNL1        0.2923
    116 H          17.9344    8.4589    0.0000 H       1  UNL1        0.2924
    117 H           3.7072    1.5265    0.0000 H       1  UNL1        0.2923
    118 H           7.6846    3.8398    0.0000 H       1  UNL1        0.2923
    119 H           5.1890    3.9231    0.0000 H       1  UNL1        0.2924
    120 H           4.5142    2.2932    0.0000 H       1  UNL1        0.2923
    121 H           2.0448    0.9362    0.0000 H       1  UNL1        0.2924
    122 H           2.0000   -1.5604    0.0000 H       1  UNL1        0.2923
@<TRIPOS>BOND
     1     1    32    1
     2     1    40    1
     3     2    35    1
     4     2    41    1
     5     3    38    1
     6     3    53    1
     7     4    37    2
     8     5    42    1
     9     5    98    1
    10     6    41    2
    11     7    43    1
    12     7    62    1
    13     8    47    1
    14     8    54    1
    15     9    45    1
    16     9   101    1
    17    10    49    1
    18    10    64    1
    19    11    52    1
    20    11   102    1
    21    12    55    1
    22    12   103    1
    23    13    53    2
    24    14    57    1
    25    14    70    1
    26    15    58    1
    27    15   106    1
    28    16    59    1
    29    16   107    1
    30    17    62    2
    31    18    64    2
    32    19    65    1
    33    19   110    1
    34    20    71    1
    35    20   112    1
    36    21    73    1
    37    21   113    1
    38    22    74    1
    39    22   114    1
    40    23    70    2
    41    24    75    1
    42    24   115    1
    43    25    78    1
    44    25   116    1
    45    26    80    1
    46    26   117    1
    47    27    81    1
    48    27   118    1
    49    28    82    1
    50    28   119    1
    51    29    84    1
    52    29   120    1
    53    30    86    1
    54    30   121    1
    55    31    85    1
    56    31   122    1
    57    32    33    1
    58    32    34    1
    59    32    37    1
    60    33    35    1
    61    33    36    1
    62    33    87    1
    63    34    39    1
    64    34    41    1
    65    34    88    1
    66    35    38    1
    67    35    89    1
    68    36    40   ar
    69    36    45   ar
    70    37    42    1
    71    38    43    1
    72    38    90    1
    73    39    42    2
    74    39    46    1
    75    40    44   ar
    76    43    49    1
    77    43    91    1
    78    44    47   ar
    79    44    48    1
    80    45    50   ar
    81    46    51   ar
    82    46    55   ar
    83    47    50   ar
    84    48    52    1
    85    48    92    1
    86    48    93    1
    87    49    57    1
    88    49    94    1
    89    50    95    1
    90    51    53    1
    91    51    56   ar
    92    52    54    1
    93    52    96    1
    94    54    60    1
    95    54    97    1
    96    55    58   ar
    97    56    59   ar
    98    56    61    1
    99    57    99    1
   100    57   100    1
   101    58    59   ar
   102    60    66   ar
   103    60    67   ar
   104    61    63   ar
   105    61    65   ar
   106    62    68    1
   107    63    64    1
   108    63    69   ar
   109    65    71   ar
   110    66    74   ar
   111    66   104    1
   112    67    73   ar
   113    67   105    1
   114    68    72   ar
   115    68    76   ar
   116    69    75   ar
   117    69   108    1
   118    70    77    1
   119    71    75   ar
   120    72    79    1
   121    72    80   ar
   122    73    78   ar
   123    74    78   ar
   124    76    81   ar
   125    76   109    1
   126    77    79   ar
   127    77    83   ar
   128    79    84   ar
   129    80    82   ar
   130    81    82   ar
   131    83    85   ar
   132    83   111    1
   133    84    86   ar
   134    85    86   ar
