@<TRIPOS>MOLECULE
IMPHY008342
 49 53 0 0 0
SMALL
GASTEIGER

@<TRIPOS>ATOM
      1 O           3.7153   -1.2378    0.0000 O.3     1  UNL1       -0.3590
      2 O           4.3723    2.2344    0.0000 O.3     1  UNL1       -0.4225
      3 O           2.8836    3.2035    0.0000 O.2     1  UNL1       -0.2449
      4 C           4.5816   -0.7374    0.0000 C.3     1  UNL1        0.1075
      5 C           6.3576   -0.7442    0.0000 C.3     1  UNL1       -0.0197
      6 C           5.4476   -0.2374    0.0000 C.3     1  UNL1        0.0184
      7 C           6.3656   -1.7858    0.0000 C.3     1  UNL1       -0.0298
      8 C           3.7155   -0.2374    0.0000 C.3     1  UNL1        0.1178
      9 C           4.5655   -1.7789    0.0000 C.3     1  UNL1       -0.0201
     10 C           7.3010   -2.3356    0.0000 C.3     1  UNL1       -0.0315
     11 C           5.4635   -2.3066    0.0000 C.3     1  UNL1       -0.0465
     12 C           7.2844   -0.1802    0.0000 C.3     1  UNL1       -0.0467
     13 C           8.2407   -1.7931    0.0000 C.3     1  UNL1       -0.0476
     14 C           5.4476    0.7626    0.0000 C.2     1  UNL1       -0.0347
     15 C           6.3499    0.2557    0.0000 C.3     1  UNL1       -0.0587
     16 C           8.2323   -0.7081    0.0000 C.3     1  UNL1       -0.0520
     17 C           3.7155    0.7626    0.0000 C.2     1  UNL1        0.0357
     18 C           4.5816    1.2626    0.0000 C.2     1  UNL1        0.1346
     19 C           7.7977   -3.2035    0.0000 C.3     1  UNL1       -0.0595
     20 C           6.7977   -3.1996    0.0000 C.3     1  UNL1       -0.0595
     21 C           2.9785    1.4297    0.0000 C.2     1  UNL1        0.0431
     22 C           3.3836    2.3375    0.0000 C.2     1  UNL1        0.3406
     23 C           2.0000    1.2235    0.0000 C.3     1  UNL1       -0.0325
     24 H           6.1804    0.1933    0.0000 H       1  UNL1        0.0378
     25 H           6.3623   -2.6358    0.0000 H       1  UNL1        0.0311
     26 H           2.8655   -0.2373    0.0000 H       1  UNL1        0.0677
     27 H           3.9563   -1.6634    0.0000 H       1  UNL1        0.0294
     28 H           4.3475   -2.3593    0.0000 H       1  UNL1        0.0294
     29 H           5.0626   -2.7795    0.0000 H       1  UNL1        0.0269
     30 H           5.8608   -2.7826    0.0000 H       1  UNL1        0.0269
     31 H           7.6743    0.3019    0.0000 H       1  UNL1        0.0271
     32 H           6.8762    0.2865    0.0000 H       1  UNL1        0.0271
     33 H           8.4542   -2.3751    0.0000 H       1  UNL1        0.0271
     34 H           8.8507   -1.6823    0.0000 H       1  UNL1        0.0271
     35 H           5.9845    1.0726    0.0000 H       1  UNL1        0.0612
     36 H           6.9698    0.2605    0.0000 H       1  UNL1        0.0235
     37 H           6.3451    0.8757    0.0000 H       1  UNL1        0.0235
     38 H           5.7299    0.2510    0.0000 H       1  UNL1        0.0235
     39 H           8.8440   -0.8095    0.0000 H       1  UNL1        0.0266
     40 H           8.4368   -0.1228    0.0000 H       1  UNL1        0.0266
     41 H           7.2596   -3.5114    0.0000 H       1  UNL1        0.0235
     42 H           8.1056   -3.7416    0.0000 H       1  UNL1        0.0235
     43 H           8.3358   -2.8956    0.0000 H       1  UNL1        0.0235
     44 H           6.2620   -2.8876    0.0000 H       1  UNL1        0.0235
     45 H           6.4856   -3.7354    0.0000 H       1  UNL1        0.0235
     46 H           7.3334   -3.5117    0.0000 H       1  UNL1        0.0235
     47 H           1.8721    1.8302    0.0000 H       1  UNL1        0.0280
     48 H           1.3933    1.0956    0.0000 H       1  UNL1        0.0280
     49 H           2.1279    0.6168    0.0000 H       1  UNL1        0.0280
@<TRIPOS>BOND
     1     4     1    1
     2     1     8    1
     3     2    18    1
     4     2    22    1
     5     3    22    2
     6     4     6    1
     7     4     8    1
     8     4     9    1
     9     5     6    1
    10     5     7    1
    11     5    12    1
    12     5    15    1
    13     6    14    1
    14     6    24    1
    15     7    10    1
    16     7    11    1
    17     7    25    1
    18     8    17    1
    19     8    26    1
    20     9    11    1
    21     9    27    1
    22     9    28    1
    23    10    13    1
    24    10    19    1
    25    10    20    1
    26    11    29    1
    27    11    30    1
    28    12    16    1
    29    12    31    1
    30    12    32    1
    31    13    16    1
    32    13    33    1
    33    13    34    1
    34    14    18    2
    35    14    35    1
    36    15    36    1
    37    15    37    1
    38    15    38    1
    39    16    39    1
    40    16    40    1
    41    17    18    1
    42    17    21    2
    43    19    41    1
    44    19    42    1
    45    19    43    1
    46    20    44    1
    47    20    45    1
    48    20    46    1
    49    21    22    1
    50    21    23    1
    51    23    47    1
    52    23    48    1
    53    23    49    1
