@<TRIPOS>MOLECULE
IMPHY014173
 97 101 0 0 0
SMALL
GASTEIGER

@<TRIPOS>ATOM
      1 O           6.0433   -3.9452    0.0000 O.3     1  UNL1       -0.3684
      2 O           7.2694   -2.7496    0.0000 O.3     1  UNL1       -0.4529
      3 O           7.8936   -1.6384    0.0000 O.3     1  UNL1       -0.4601
      4 O           3.4423   -1.6515    0.0000 O.3     1  UNL1       -0.4608
      5 O           4.1124    0.1826    0.0000 O.3     1  UNL1       -0.4567
      6 O           5.2769    1.6428    0.0000 O.3     1  UNL1       -0.4496
      7 O           8.8339   -1.3633    0.0000 O.3     1  UNL1       -0.3881
      8 O           9.0005    1.9283    0.0000 O.3     1  UNL1       -0.4571
      9 O           8.4883   -3.9801    0.0000 O.2     1  UNL1       -0.2511
     10 O           9.5356   -2.1898    0.0000 O.2     1  UNL1       -0.2512
     11 O           3.5517   -3.3801    0.0000 O.2     1  UNL1       -0.2512
     12 O           2.9344   -1.0872    0.0000 O.2     1  UNL1       -0.2512
     13 O           3.7164    0.8913    0.0000 O.2     1  UNL1       -0.2449
     14 O           7.9206    3.2824    0.0000 O.2     1  UNL1       -0.2511
     15 C           6.2108   -1.4488    0.0000 C.3     1  UNL1        0.0539
     16 C           5.3099   -1.0149    0.0000 C.3     1  UNL1        0.0558
     17 C           6.3047   -2.4862    0.0000 C.3     1  UNL1        0.1693
     18 C           7.3343   -0.0400    0.0000 C.3     1  UNL1        0.0647
     19 C           7.1118   -1.0149    0.0000 C.3     1  UNL1        0.1225
     20 C           5.4486   -3.0796    0.0000 C.3     1  UNL1        0.1045
     21 C           4.4403   -1.5883    0.0000 C.3     1  UNL1        0.1149
     22 C           5.0873   -0.0400    0.0000 C.3     1  UNL1        0.1528
     23 C           4.5101   -2.6276    0.0000 C.3     1  UNL1        0.0152
     24 C           6.7108    0.7419    0.0000 C.2     1  UNL1       -0.0110
     25 C           6.9065   -3.3469    0.0000 C.3     1  UNL1        0.0909
     26 C           5.7108    0.7419    0.0000 C.3     1  UNL1        0.1628
     27 C           8.2641    0.3117    0.0000 C.3     1  UNL1        0.0038
     28 C           8.0841   -0.7017    0.0000 C.3     1  UNL1        0.0734
     29 C           4.4089   -0.5810    0.0000 C.3     1  UNL1       -0.0521
     30 C           8.2186    1.3048    0.0000 C.3     1  UNL1        0.1253
     31 C           7.2606    1.5701    0.0000 C.2     1  UNL1       -0.0291
     32 C           8.9623   -0.2234    0.0000 C.3     1  UNL1       -0.0354
     33 C           7.3232   -1.5639    0.0000 C.3     1  UNL1       -0.0354
     34 C           6.9109    2.5069    0.0000 C.3     1  UNL1       -0.0399
     35 C           7.5236   -3.7167    0.0000 C.2     1  UNL1        0.3046
     36 C           8.5554   -2.3881    0.0000 C.2     1  UNL1        0.3042
     37 C           2.9980   -2.5473    0.0000 C.2     1  UNL1        0.3042
     38 C           3.1568   -0.1122    0.0000 C.2     1  UNL1        0.3043
     39 C           4.2797    1.7176    0.0000 C.2     1  UNL1        0.3399
     40 C           6.8131   -4.4205    0.0000 C.3     1  UNL1        0.0333
     41 C           8.8514    2.9171    0.0000 C.2     1  UNL1        0.3045
     42 C           8.2372   -3.3360    0.0000 C.3     1  UNL1        0.0332
     43 C           2.0000   -2.6106    0.0000 C.3     1  UNL1        0.0332
     44 C           2.4238    0.5680    0.0000 C.3     1  UNL1        0.0332
     45 C           3.8458    2.6185    0.0000 C.ar    1  UNL1        0.0590
     46 C           9.6333    3.5406    0.0000 C.3     1  UNL1        0.0333
     47 C           4.4092    3.4448    0.0000 C.ar    1  UNL1       -0.0478
     48 C           2.8486    2.6933    0.0000 C.ar    1  UNL1       -0.0478
     49 C           3.9753    4.3457    0.0000 C.ar    1  UNL1       -0.0610
     50 C           2.4148    3.5942    0.0000 C.ar    1  UNL1       -0.0610
     51 C           2.9781    4.4205    0.0000 C.ar    1  UNL1       -0.0617
     52 H           6.9502   -1.8681    0.0000 H       1  UNL1        0.0385
     53 H           7.0424   -1.6310    0.0000 H       1  UNL1        0.0748
     54 H           4.8953   -3.7248    0.0000 H       1  UNL1        0.0638
     55 H           4.2434   -1.0004    0.0000 H       1  UNL1        0.0741
     56 H           4.8826    0.5452    0.0000 H       1  UNL1        0.0782
     57 H           3.8935   -2.5627    0.0000 H       1  UNL1        0.0327
     58 H           4.3406   -3.2240    0.0000 H       1  UNL1        0.0327
     59 H           7.2604   -3.8560    0.0000 H       1  UNL1        0.0601
     60 H           7.4151   -2.9923    0.0000 H       1  UNL1        0.0601
     61 H           6.0407    1.2668    0.0000 H       1  UNL1        0.0820
     62 H           8.4213   -0.2880    0.0000 H       1  UNL1        0.0315
     63 H           8.8770    0.4050    0.0000 H       1  UNL1        0.0315
     64 H           4.6779   -0.0224    0.0000 H       1  UNL1        0.0238
     65 H           3.8503   -0.3120    0.0000 H       1  UNL1        0.0238
     66 H           4.1399   -1.1396    0.0000 H       1  UNL1        0.0238
     67 H           8.0945    1.9122    0.0000 H       1  UNL1        0.0782
     68 H           9.2588   -0.7679    0.0000 H       1  UNL1        0.0257
     69 H           9.5068    0.0731    0.0000 H       1  UNL1        0.0257
     70 H           8.6658    0.3211    0.0000 H       1  UNL1        0.0257
     71 H           6.8584   -1.1537    0.0000 H       1  UNL1        0.0257
     72 H           6.9130   -2.0288    0.0000 H       1  UNL1        0.0257
     73 H           7.7881   -1.9741    0.0000 H       1  UNL1        0.0257
     74 H           7.4917    2.7238    0.0000 H       1  UNL1        0.0276
     75 H           6.6940    3.0878    0.0000 H       1  UNL1        0.0276
     76 H           6.3300    2.2901    0.0000 H       1  UNL1        0.0276
     77 H           9.4216   -1.1659    0.0000 H       1  UNL1        0.2102
     78 H           6.3768   -3.9800    0.0000 H       1  UNL1        0.0342
     79 H           6.3726   -4.8568    0.0000 H       1  UNL1        0.0342
     80 H           7.2494   -4.8610    0.0000 H       1  UNL1        0.0342
     81 H           7.6494   -3.1387    0.0000 H       1  UNL1        0.0342
     82 H           8.0399   -3.9238    0.0000 H       1  UNL1        0.0342
     83 H           8.8250   -3.5333    0.0000 H       1  UNL1        0.0342
     84 H           1.9608   -1.9918    0.0000 H       1  UNL1        0.0342
     85 H           1.3812   -2.6498    0.0000 H       1  UNL1        0.0342
     86 H           2.0392   -3.2294    0.0000 H       1  UNL1        0.0342
     87 H           2.8455    1.0225    0.0000 H       1  UNL1        0.0342
     88 H           1.9693    0.9898    0.0000 H       1  UNL1        0.0342
     89 H           2.0021    0.1136    0.0000 H       1  UNL1        0.0342
     90 H          10.0198    3.0558    0.0000 H       1  UNL1        0.0342
     91 H          10.1180    3.9272    0.0000 H       1  UNL1        0.0342
     92 H           9.2467    4.0253    0.0000 H       1  UNL1        0.0342
     93 H           5.0274    3.3984    0.0000 H       1  UNL1        0.0626
     94 H           2.4994    2.1810    0.0000 H       1  UNL1        0.0626
     95 H           4.3246    4.8580    0.0000 H       1  UNL1        0.0618
     96 H           1.7965    3.6406    0.0000 H       1  UNL1        0.0618
     97 H           2.7091    4.9791    0.0000 H       1  UNL1        0.0618
@<TRIPOS>BOND
     1     1    20    1
     2     1    25    1
     3    17     2    1
     4     2    35    1
     5    19     3    1
     6     3    36    1
     7    21     4    1
     8     4    37    1
     9    22     5    1
    10     5    38    1
    11    26     6    1
    12     6    39    1
    13     7    28    1
    14     7    77    1
    15    30     8    1
    16     8    41    1
    17     9    35    2
    18    10    36    2
    19    11    37    2
    20    12    38    2
    21    13    39    2
    22    14    41    2
    23    15    16    1
    24    15    17    1
    25    15    19    1
    26    15    52    1
    27    16    21    1
    28    16    22    1
    29    16    29    1
    30    17    20    1
    31    17    25    1
    32    18    19    1
    33    18    24    1
    34    18    27    1
    35    18    28    1
    36    19    53    1
    37    20    23    1
    38    20    54    1
    39    21    23    1
    40    21    55    1
    41    22    26    1
    42    22    56    1
    43    23    57    1
    44    23    58    1
    45    24    26    1
    46    24    31    2
    47    25    59    1
    48    25    60    1
    49    26    61    1
    50    27    30    1
    51    27    62    1
    52    27    63    1
    53    28    32    1
    54    28    33    1
    55    29    64    1
    56    29    65    1
    57    29    66    1
    58    30    31    1
    59    30    67    1
    60    31    34    1
    61    32    68    1
    62    32    69    1
    63    32    70    1
    64    33    71    1
    65    33    72    1
    66    33    73    1
    67    34    74    1
    68    34    75    1
    69    34    76    1
    70    35    40    1
    71    36    42    1
    72    37    43    1
    73    38    44    1
    74    39    45    1
    75    40    78    1
    76    40    79    1
    77    40    80    1
    78    41    46    1
    79    42    81    1
    80    42    82    1
    81    42    83    1
    82    43    84    1
    83    43    85    1
    84    43    86    1
    85    44    87    1
    86    44    88    1
    87    44    89    1
    88    45    47   ar
    89    45    48   ar
    90    46    90    1
    91    46    91    1
    92    46    92    1
    93    47    49   ar
    94    47    93    1
    95    48    50   ar
    96    48    94    1
    97    49    51   ar
    98    49    95    1
    99    50    51   ar
   100    50    96    1
   101    51    97    1
