@<TRIPOS>MOLECULE
IMPHY000065
 44 46 0 0 0
SMALL
GASTEIGER

@<TRIPOS>ATOM
      1 O           6.3981   -0.1754    0.0000 O.2     1  UNL1       -0.4544
      2 O          10.7282    0.3246    0.0000 O.3     1  UNL1       -0.4913
      3 O           8.9962   -2.6754    0.0000 O.3     1  UNL1       -0.4913
      4 O          10.7282   -1.6754    0.0000 O.3     1  UNL1       -0.4885
      5 O           2.8680   -0.1995    0.0000 O.3     1  UNL1       -0.4949
      6 O           4.6497    2.8592    0.0000 O.3     1  UNL1       -0.5058
      7 O           6.3981    2.8246    0.0000 O.2     1  UNL1       -0.2869
      8 C           8.1301   -0.1754    0.0000 C.ar    1  UNL1        0.0245
      9 C           7.2641    0.3246    0.0000 C.ar    1  UNL1        0.1395
     10 C           5.5320    1.3246    0.0000 C.ar    1  UNL1        0.1055
     11 C           5.5320    0.3246    0.0000 C.ar    1  UNL1        0.1462
     12 C           7.2641    1.3246    0.0000 C.ar    1  UNL1        0.0288
     13 C           6.3981    1.8246    0.0000 C.ar    1  UNL1        0.1966
     14 C           8.1301   -1.1754    0.0000 C.ar    1  UNL1       -0.0054
     15 C           8.9962    0.3246    0.0000 C.ar    1  UNL1       -0.0054
     16 C           4.6381    1.8593    0.0000 C.ar    1  UNL1        0.1347
     17 C           9.8622   -0.1754    0.0000 C.ar    1  UNL1        0.1658
     18 C           8.9962   -1.6754    0.0000 C.ar    1  UNL1        0.1658
     19 C           4.6381   -0.2101    0.0000 C.ar    1  UNL1        0.0233
     20 C           9.8622   -1.1754    0.0000 C.ar    1  UNL1        0.2035
     21 C           3.7320    0.3038    0.0000 C.ar    1  UNL1        0.1271
     22 C           3.7320    1.3454    0.0000 C.ar    1  UNL1        0.0225
     23 C          10.7282    1.3246    0.0000 C.3     1  UNL1        0.0790
     24 C           8.1301   -3.1754    0.0000 C.3     1  UNL1        0.0790
     25 C          11.5942   -1.1754    0.0000 C.3     1  UNL1        0.0791
     26 C           2.0000    0.2971    0.0000 C.3     1  UNL1        0.0788
     27 H           7.8010    1.6346    0.0000 H       1  UNL1        0.0693
     28 H           7.5932   -1.4854    0.0000 H       1  UNL1        0.0662
     29 H           8.9962    0.9446    0.0000 H       1  UNL1        0.0662
     30 H           4.6453   -0.8300    0.0000 H       1  UNL1        0.0691
     31 H           3.1963    1.6575    0.0000 H       1  UNL1        0.0691
     32 H           4.1164    3.1754    0.0000 H       1  UNL1        0.2922
     33 H          11.3482    1.3246    0.0000 H       1  UNL1        0.0660
     34 H          10.7282    1.9446    0.0000 H       1  UNL1        0.0660
     35 H          10.1082    1.3246    0.0000 H       1  UNL1        0.0660
     36 H           7.8201   -2.6385    0.0000 H       1  UNL1        0.0660
     37 H           7.5932   -3.4854    0.0000 H       1  UNL1        0.0660
     38 H           8.4401   -3.7123    0.0000 H       1  UNL1        0.0660
     39 H          11.9042   -1.7123    0.0000 H       1  UNL1        0.0660
     40 H          12.1312   -0.8654    0.0000 H       1  UNL1        0.0660
     41 H          11.2842   -0.6385    0.0000 H       1  UNL1        0.0660
     42 H           2.3079    0.8352    0.0000 H       1  UNL1        0.0660
     43 H           1.4619    0.6050    0.0000 H       1  UNL1        0.0660
     44 H           1.6921   -0.2410    0.0000 H       1  UNL1        0.0660
@<TRIPOS>BOND
     1     1     9   ar
     2     1    11   ar
     3     2    17    1
     4     2    23    1
     5     3    18    1
     6     3    24    1
     7     4    20    1
     8     4    25    1
     9     5    21    1
    10     5    26    1
    11     6    16    1
    12     6    32    1
    13     7    13    2
    14     8     9    1
    15     8    14   ar
    16     8    15   ar
    17     9    12   ar
    18    10    11   ar
    19    10    13   ar
    20    10    16   ar
    21    11    19   ar
    22    12    13   ar
    23    12    27    1
    24    14    18   ar
    25    14    28    1
    26    15    17   ar
    27    15    29    1
    28    16    22   ar
    29    17    20   ar
    30    18    20   ar
    31    19    21   ar
    32    19    30    1
    33    21    22   ar
    34    22    31    1
    35    23    33    1
    36    23    34    1
    37    23    35    1
    38    24    36    1
    39    24    37    1
    40    24    38    1
    41    25    39    1
    42    25    40    1
    43    25    41    1
    44    26    42    1
    45    26    43    1
    46    26    44    1
