@<TRIPOS>MOLECULE
IMPHY017254
 29 28 0 0 0
SMALL
GASTEIGER

@<TRIPOS>ATOM
      1 C           2.8660   -0.3170    0.0000 C.3     1  UNL1       -0.0351
      2 C           3.7320    0.1830    0.0000 C.3     1  UNL1       -0.0390
      3 C           4.5981   -0.3170    0.0000 C.3     1  UNL1       -0.0502
      4 C           2.0000   -0.8170    0.0000 C.3     1  UNL1       -0.0598
      5 C           2.3660    0.5490    0.0000 C.3     1  UNL1       -0.0598
      6 C           3.3660   -1.1830    0.0000 C.3     1  UNL1       -0.0598
      7 C           3.7320    1.1830    0.0000 C.3     1  UNL1       -0.0619
      8 C           5.4641    0.1830    0.0000 C.3     1  UNL1       -0.0557
      9 C           6.3301   -0.3170    0.0000 C.3     1  UNL1       -0.0653
     10 H           4.2690    0.4930    0.0000 H       1  UNL1        0.0303
     11 H           4.1996   -0.7919    0.0000 H       1  UNL1        0.0268
     12 H           4.9966   -0.7919    0.0000 H       1  UNL1        0.0268
     13 H           1.6900   -0.2801    0.0000 H       1  UNL1        0.0235
     14 H           1.4631   -1.1270    0.0000 H       1  UNL1        0.0235
     15 H           2.3100   -1.3539    0.0000 H       1  UNL1        0.0235
     16 H           2.9030    0.8590    0.0000 H       1  UNL1        0.0235
     17 H           2.0560    1.0860    0.0000 H       1  UNL1        0.0235
     18 H           1.8291    0.2390    0.0000 H       1  UNL1        0.0235
     19 H           2.8291   -1.4930    0.0000 H       1  UNL1        0.0235
     20 H           3.6760   -1.7200    0.0000 H       1  UNL1        0.0235
     21 H           3.9030   -0.8730    0.0000 H       1  UNL1        0.0235
     22 H           4.3520    1.1830    0.0000 H       1  UNL1        0.0233
     23 H           3.7320    1.8030    0.0000 H       1  UNL1        0.0233
     24 H           3.1120    1.1830    0.0000 H       1  UNL1        0.0233
     25 H           5.8626    0.6580    0.0000 H       1  UNL1        0.0263
     26 H           5.0656    0.6580    0.0000 H       1  UNL1        0.0263
     27 H           6.0201   -0.8539    0.0000 H       1  UNL1        0.0230
     28 H           6.8671   -0.6270    0.0000 H       1  UNL1        0.0230
     29 H           6.6401    0.2199    0.0000 H       1  UNL1        0.0230
@<TRIPOS>BOND
     1     1     2    1
     2     1     4    1
     3     1     5    1
     4     1     6    1
     5     2     3    1
     6     2     7    1
     7     2    10    1
     8     3     8    1
     9     3    11    1
    10     3    12    1
    11     4    13    1
    12     4    14    1
    13     4    15    1
    14     5    16    1
    15     5    17    1
    16     5    18    1
    17     6    19    1
    18     6    20    1
    19     6    21    1
    20     7    22    1
    21     7    23    1
    22     7    24    1
    23     8     9    1
    24     8    25    1
    25     8    26    1
    26     9    27    1
    27     9    28    1
    28     9    29    1
