@<TRIPOS>MOLECULE
IMPHY015310
 26 25 0 0 0
SMALL
GASTEIGER

@<TRIPOS>ATOM
      1 C           3.7320    0.0000    0.0000 C.3     1  UNL1       -0.0351
      2 C           4.5981    0.5000    0.0000 C.3     1  UNL1       -0.0481
      3 C           2.8660   -0.5000    0.0000 C.3     1  UNL1       -0.0507
      4 C           3.2320    0.8660    0.0000 C.3     1  UNL1       -0.0598
      5 C           4.2320   -0.8660    0.0000 C.3     1  UNL1       -0.0598
      6 C           5.4641    0.0000    0.0000 C.3     1  UNL1       -0.0554
      7 C           2.0000   -0.0000    0.0000 C.3     1  UNL1       -0.0648
      8 C           6.3301    0.5000    0.0000 C.3     1  UNL1       -0.0653
      9 H           4.9966    0.9749    0.0000 H       1  UNL1        0.0270
     10 H           4.1996    0.9749    0.0000 H       1  UNL1        0.0270
     11 H           2.4675   -0.9749    0.0000 H       1  UNL1        0.0268
     12 H           3.2646   -0.9749    0.0000 H       1  UNL1        0.0268
     13 H           3.7690    1.1760    0.0000 H       1  UNL1        0.0235
     14 H           2.9220    1.4030    0.0000 H       1  UNL1        0.0235
     15 H           2.6951    0.5560    0.0000 H       1  UNL1        0.0235
     16 H           3.6951   -1.1760    0.0000 H       1  UNL1        0.0235
     17 H           4.5420   -1.4030    0.0000 H       1  UNL1        0.0235
     18 H           4.7690   -0.5560    0.0000 H       1  UNL1        0.0235
     19 H           5.0656   -0.4749    0.0000 H       1  UNL1        0.0263
     20 H           5.8626   -0.4749    0.0000 H       1  UNL1        0.0263
     21 H           2.3100    0.5369    0.0000 H       1  UNL1        0.0230
     22 H           1.4631    0.3100    0.0000 H       1  UNL1        0.0230
     23 H           1.6900   -0.5369    0.0000 H       1  UNL1        0.0230
     24 H           6.6401   -0.0369    0.0000 H       1  UNL1        0.0230
     25 H           6.8671    0.8100    0.0000 H       1  UNL1        0.0230
     26 H           6.0201    1.0369    0.0000 H       1  UNL1        0.0230
@<TRIPOS>BOND
     1     1     2    1
     2     1     3    1
     3     1     4    1
     4     1     5    1
     5     2     6    1
     6     2     9    1
     7     2    10    1
     8     3     7    1
     9     3    11    1
    10     3    12    1
    11     4    13    1
    12     4    14    1
    13     4    15    1
    14     5    16    1
    15     5    17    1
    16     5    18    1
    17     6     8    1
    18     6    19    1
    19     6    20    1
    20     7    21    1
    21     7    22    1
    22     7    23    1
    23     8    24    1
    24     8    25    1
    25     8    26    1
