@<TRIPOS>MOLECULE
IMPHY003372
 59 62 0 0 0
SMALL
GASTEIGER

@<TRIPOS>ATOM
      1 O           6.8671   -0.2866    0.0000 O.3     1  UNL1       -0.3093
      2 O           6.0010    1.2134    0.0000 O.2     1  UNL1       -0.4707
      3 O           5.1350   -0.2866    0.0000 O.3     1  UNL1       -0.3404
      4 O           8.9900    3.4687    0.0000 O.3     1  UNL1       -0.3872
      5 O           6.8671   -2.2866    0.0000 O.3     1  UNL1       -0.3841
      6 O           5.1350   -3.2866    0.0000 O.3     1  UNL1       -0.3864
      7 O           3.4030   -2.2866    0.0000 O.3     1  UNL1       -0.3865
      8 O           9.9685   -0.2480    0.0000 O.3     1  UNL1       -0.4567
      9 O           2.5369   -0.7866    0.0000 O.3     1  UNL1       -0.3924
     10 O           9.6113   -1.9428    0.0000 O.2     1  UNL1       -0.2450
     11 O          14.1932   -2.0234    0.0000 O.3     1  UNL1       -0.5068
     12 C           7.7331    1.2134    0.0000 C.3     1  UNL1        0.0549
     13 C           7.7331    2.2134    0.0000 C.3     1  UNL1        0.0221
     14 C           6.8671    0.7134    0.0000 C.3     1  UNL1        0.2106
     15 C           8.6793    2.5182    0.0000 C.3     1  UNL1        0.0808
     16 C           8.6793    0.9087    0.0000 C.2     1  UNL1       -0.0245
     17 C           9.2629    1.7134    0.0000 C.2     1  UNL1       -0.0524
     18 C           6.0010   -0.7866    0.0000 C.3     1  UNL1        0.1918
     19 C           6.0010   -1.7866    0.0000 C.3     1  UNL1        0.1342
     20 C           6.8671    2.7134    0.0000 C.2     1  UNL1       -0.0430
     21 C           5.1350   -2.2866    0.0000 C.3     1  UNL1        0.1141
     22 C           4.2690   -1.7866    0.0000 C.3     1  UNL1        0.1119
     23 C           4.2690   -0.7866    0.0000 C.3     1  UNL1        0.1130
     24 C           8.9900   -0.0418    0.0000 C.3     1  UNL1        0.1145
     25 C           6.0010    2.2134    0.0000 C.2     1  UNL1        0.0843
     26 C           3.4030   -0.2866    0.0000 C.3     1  UNL1        0.0730
     27 C          10.2791   -1.1986    0.0000 C.2     1  UNL1        0.3395
     28 C          11.2576   -1.4048    0.0000 C.ar    1  UNL1        0.0592
     29 C          11.5683   -2.3553    0.0000 C.ar    1  UNL1       -0.0443
     30 C          11.9255   -0.6605    0.0000 C.ar    1  UNL1       -0.0443
     31 C          12.5468   -2.5615    0.0000 C.ar    1  UNL1       -0.0194
     32 C          12.9040   -0.8667    0.0000 C.ar    1  UNL1       -0.0194
     33 C          13.2147   -1.8172    0.0000 C.ar    1  UNL1        0.1169
     34 H           7.8230    0.3682    0.0000 H       1  UNL1        0.0414
     35 H           7.8230    3.0587    0.0000 H       1  UNL1        0.0380
     36 H           7.4040    0.4034    0.0000 H       1  UNL1        0.1062
     37 H           8.2418    2.9575    0.0000 H       1  UNL1        0.0644
     38 H           9.8829    1.7134    0.0000 H       1  UNL1        0.0598
     39 H           6.0010   -0.1666    0.0000 H       1  UNL1        0.0939
     40 H           6.0010   -2.4066    0.0000 H       1  UNL1        0.0671
     41 H           6.8671    3.3334    0.0000 H       1  UNL1        0.0606
     42 H           4.5981   -2.5966    0.0000 H       1  UNL1        0.0648
     43 H           3.7320   -1.4766    0.0000 H       1  UNL1        0.0647
     44 H           4.2690   -0.1666    0.0000 H       1  UNL1        0.0647
     45 H           8.3762   -0.1292    0.0000 H       1  UNL1        0.0746
     46 H           8.9694   -0.6615    0.0000 H       1  UNL1        0.0746
     47 H           5.4641    2.5234    0.0000 H       1  UNL1        0.1021
     48 H           9.5966    3.5966    0.0000 H       1  UNL1        0.2102
     49 H           3.8015    0.1884    0.0000 H       1  UNL1        0.0584
     50 H           3.0044    0.1884    0.0000 H       1  UNL1        0.0584
     51 H           6.8671   -2.9066    0.0000 H       1  UNL1        0.2101
     52 H           4.5981   -3.5966    0.0000 H       1  UNL1        0.2100
     53 H           3.4030   -2.9066    0.0000 H       1  UNL1        0.2100
     54 H           2.0000   -0.4766    0.0000 H       1  UNL1        0.2095
     55 H          11.1542   -2.8168    0.0000 H       1  UNL1        0.0627
     56 H          11.7329   -0.0711    0.0000 H       1  UNL1        0.0627
     57 H          12.7394   -3.1508    0.0000 H       1  UNL1        0.0654
     58 H          13.3181   -0.4052    0.0000 H       1  UNL1        0.0654
     59 H          14.3858   -2.6127    0.0000 H       1  UNL1        0.2921
@<TRIPOS>BOND
     1    14     1    1
     2     1    18    1
     3     2    14    1
     4     2    25    1
     5     3    18    1
     6     3    23    1
     7    15     4    1
     8     4    48    1
     9    19     5    1
    10     5    51    1
    11    21     6    1
    12     6    52    1
    13    22     7    1
    14     7    53    1
    15     8    24    1
    16     8    27    1
    17     9    26    1
    18     9    54    1
    19    10    27    2
    20    11    33    1
    21    11    59    1
    22    12    13    1
    23    12    14    1
    24    12    16    1
    25    12    34    1
    26    13    15    1
    27    13    20    1
    28    13    35    1
    29    14    36    1
    30    15    17    1
    31    15    37    1
    32    16    17    2
    33    16    24    1
    34    17    38    1
    35    18    19    1
    36    18    39    1
    37    19    21    1
    38    19    40    1
    39    20    25    2
    40    20    41    1
    41    21    22    1
    42    21    42    1
    43    22    23    1
    44    22    43    1
    45    23    26    1
    46    23    44    1
    47    24    45    1
    48    24    46    1
    49    25    47    1
    50    26    49    1
    51    26    50    1
    52    27    28    1
    53    28    29   ar
    54    28    30   ar
    55    29    31   ar
    56    29    55    1
    57    30    32   ar
    58    30    56    1
    59    31    33   ar
    60    31    57    1
    61    32    33   ar
    62    32    58    1
