@<TRIPOS>MOLECULE
IMPHY017049
 55 54 0 0 0
SMALL
GASTEIGER

@<TRIPOS>ATOM
      1 O           4.9641   -1.5740    0.0000 O.3     1  UNL1       -0.3848
      2 C           5.4641   -2.4400    0.0000 C.3     1  UNL1        0.0816
      3 C           6.3301   -1.9400    0.0000 C.3     1  UNL1       -0.0172
      4 C           7.1962   -2.4400    0.0000 C.3     1  UNL1       -0.0316
      5 C           4.5981   -2.9400    0.0000 C.2     1  UNL1       -0.0568
      6 C           5.9641   -3.3060    0.0000 C.3     1  UNL1       -0.0324
      7 C           3.7320   -2.4400    0.0000 C.2     1  UNL1       -0.0815
      8 C           8.0622   -1.9400    0.0000 C.2     1  UNL1       -0.0852
      9 C           3.7320   -1.4400    0.0000 C.3     1  UNL1       -0.0162
     10 C           3.7320    0.5600    0.0000 C.3     1  UNL1       -0.0286
     11 C           2.8660    0.0600    0.0000 C.2     1  UNL1       -0.0759
     12 C           2.8660   -0.9400    0.0000 C.2     1  UNL1       -0.0813
     13 C           3.7320    1.5600    0.0000 C.3     1  UNL1       -0.0308
     14 C           8.9282   -2.4400    0.0000 C.2     1  UNL1       -0.0796
     15 C           2.0000    0.5600    0.0000 C.3     1  UNL1       -0.0438
     16 C           4.5981    2.0600    0.0000 C.2     1  UNL1       -0.0850
     17 C           9.7942   -1.9400    0.0000 C.3     1  UNL1       -0.0440
     18 C           8.9282   -3.4400    0.0000 C.3     1  UNL1       -0.0440
     19 C           4.5981    3.0600    0.0000 C.2     1  UNL1       -0.0796
     20 C           5.4641    3.5600    0.0000 C.3     1  UNL1       -0.0440
     21 C           3.7320    3.5600    0.0000 C.3     1  UNL1       -0.0440
     22 H           6.7287   -1.4650    0.0000 H       1  UNL1        0.0299
     23 H           5.9316   -1.4650    0.0000 H       1  UNL1        0.0299
     24 H           6.7976   -2.9150    0.0000 H       1  UNL1        0.0308
     25 H           7.5947   -2.9150    0.0000 H       1  UNL1        0.0308
     26 H           4.5981   -3.5600    0.0000 H       1  UNL1        0.0597
     27 H           5.4272   -3.6160    0.0000 H       1  UNL1        0.0260
     28 H           6.2741   -3.8430    0.0000 H       1  UNL1        0.0260
     29 H           6.5010   -2.9960    0.0000 H       1  UNL1        0.0260
     30 H           3.1951   -2.7500    0.0000 H       1  UNL1        0.0573
     31 H           8.0622   -1.3200    0.0000 H       1  UNL1        0.0571
     32 H           4.3426   -1.5477    0.0000 H       1  UNL1        0.0350
     33 H           3.9441   -0.8574    0.0000 H       1  UNL1        0.0350
     34 H           5.2741   -1.0370    0.0000 H       1  UNL1        0.2106
     35 H           3.9441   -0.0226    0.0000 H       1  UNL1        0.0313
     36 H           4.3426    0.6677    0.0000 H       1  UNL1        0.0313
     37 H           2.3291   -1.2500    0.0000 H       1  UNL1        0.0575
     38 H           3.5200    2.1426    0.0000 H       1  UNL1        0.0310
     39 H           3.1215    1.4523    0.0000 H       1  UNL1        0.0310
     40 H           2.3100    1.0969    0.0000 H       1  UNL1        0.0274
     41 H           1.4631    0.8700    0.0000 H       1  UNL1        0.0274
     42 H           1.6900    0.0231    0.0000 H       1  UNL1        0.0274
     43 H           5.1350    1.7500    0.0000 H       1  UNL1        0.0572
     44 H          10.1042   -2.4769    0.0000 H       1  UNL1        0.0274
     45 H          10.3312   -1.6300    0.0000 H       1  UNL1        0.0274
     46 H           9.4842   -1.4031    0.0000 H       1  UNL1        0.0274
     47 H           8.3082   -3.4400    0.0000 H       1  UNL1        0.0274
     48 H           8.9282   -4.0600    0.0000 H       1  UNL1        0.0274
     49 H           9.5482   -3.4400    0.0000 H       1  UNL1        0.0274
     50 H           5.7741    3.0231    0.0000 H       1  UNL1        0.0274
     51 H           6.0010    3.8700    0.0000 H       1  UNL1        0.0274
     52 H           5.1541    4.0969    0.0000 H       1  UNL1        0.0274
     53 H           4.0420    4.0969    0.0000 H       1  UNL1        0.0274
     54 H           3.1951    3.8700    0.0000 H       1  UNL1        0.0274
     55 H           3.4220    3.0231    0.0000 H       1  UNL1        0.0274
@<TRIPOS>BOND
     1     1     2    1
     2     1    34    1
     3     2     3    1
     4     2     5    1
     5     2     6    1
     6     3     4    1
     7     3    22    1
     8     3    23    1
     9     4     8    1
    10     4    24    1
    11     4    25    1
    12     5     7    2
    13     5    26    1
    14     6    27    1
    15     6    28    1
    16     6    29    1
    17     7     9    1
    18     7    30    1
    19     8    14    2
    20     8    31    1
    21     9    12    1
    22     9    32    1
    23     9    33    1
    24    10    11    1
    25    10    13    1
    26    10    35    1
    27    10    36    1
    28    11    12    2
    29    11    15    1
    30    12    37    1
    31    13    16    1
    32    13    38    1
    33    13    39    1
    34    14    17    1
    35    14    18    1
    36    15    40    1
    37    15    41    1
    38    15    42    1
    39    16    19    2
    40    16    43    1
    41    17    44    1
    42    17    45    1
    43    17    46    1
    44    18    47    1
    45    18    48    1
    46    18    49    1
    47    19    20    1
    48    19    21    1
    49    20    50    1
    50    20    51    1
    51    20    52    1
    52    21    53    1
    53    21    54    1
    54    21    55    1
