@<TRIPOS>MOLECULE
IMPHY004228
 52 54 0 0 0
SMALL
GASTEIGER

@<TRIPOS>ATOM
      1 O           6.3299    0.9709    0.0000 O.3     1  UNL1       -0.3648
      2 O           3.7320    0.4704    0.0000 O.3     1  UNL1       -0.4572
      3 O           5.2549   -2.5014    0.0000 O.3     1  UNL1       -0.4532
      4 O           8.9282   -1.5296    0.0000 O.3     1  UNL1       -0.3874
      5 O           3.7662   -3.4704    0.0000 O.2     1  UNL1       -0.2453
      6 O           4.5981    1.9704    0.0000 O.2     1  UNL1       -0.2453
      7 C           6.3301   -0.0296    0.0000 C.3     1  UNL1        0.0967
      8 C           7.1962    0.4704    0.0000 C.3     1  UNL1        0.0909
      9 C           5.4641    0.4704    0.0000 C.3     1  UNL1        0.0164
     10 C           8.0622   -0.0296    0.0000 C.3     1  UNL1        0.0061
     11 C           4.5981   -0.0296    0.0000 C.3     1  UNL1        0.1167
     12 C           5.4641   -0.5296    0.0000 C.3     1  UNL1       -0.0332
     13 C           4.5981   -1.0296    0.0000 C.3     1  UNL1        0.0681
     14 C           8.0622   -1.0296    0.0000 C.3     1  UNL1        0.0786
     15 C           5.4641   -1.5296    0.0000 C.3     1  UNL1        0.1322
     16 C           7.1962   -1.5296    0.0000 C.2     1  UNL1       -0.0449
     17 C           3.8611   -1.6966    0.0000 C.2     1  UNL1        0.0400
     18 C           6.3301   -1.0296    0.0000 C.2     1  UNL1       -0.0419
     19 C           4.2662   -2.6044    0.0000 C.2     1  UNL1        0.3357
     20 C           7.1962   -2.5296    0.0000 C.3     1  UNL1       -0.0413
     21 C           2.8826   -1.4904    0.0000 C.2     1  UNL1       -0.0882
     22 C           3.7320    1.4704    0.0000 C.2     1  UNL1        0.3348
     23 C           2.8660    1.9704    0.0000 C.2     1  UNL1        0.0293
     24 C           2.0000    1.4704    0.0000 C.3     1  UNL1       -0.0333
     25 C           2.8660    2.9704    0.0000 C.2     1  UNL1       -0.0774
     26 C           2.0000    3.4704    0.0000 C.3     1  UNL1       -0.0461
     27 H           7.6212    1.2065    0.0000 H       1  UNL1        0.0626
     28 H           5.8626    0.9454    0.0000 H       1  UNL1        0.0330
     29 H           5.0656    0.9454    0.0000 H       1  UNL1        0.0330
     30 H           8.6728   -0.1372    0.0000 H       1  UNL1        0.0319
     31 H           8.2742    0.5531    0.0000 H       1  UNL1        0.0319
     32 H           4.5981    0.5904    0.0000 H       1  UNL1        0.0742
     33 H           5.1541    0.0074    0.0000 H       1  UNL1        0.0258
     34 H           4.9272   -0.8396    0.0000 H       1  UNL1        0.0258
     35 H           5.7741   -1.0665    0.0000 H       1  UNL1        0.0258
     36 H           3.8211   -0.6848    0.0000 H       1  UNL1        0.0427
     37 H           8.0622   -1.6496    0.0000 H       1  UNL1        0.0641
     38 H           6.1511   -2.0301    0.0000 H       1  UNL1        0.0787
     39 H           6.7287   -0.5546    0.0000 H       1  UNL1        0.0609
     40 H           9.4651   -1.2196    0.0000 H       1  UNL1        0.2102
     41 H           6.5762   -2.5296    0.0000 H       1  UNL1        0.0275
     42 H           7.1962   -3.1496    0.0000 H       1  UNL1        0.0275
     43 H           7.8162   -2.5296    0.0000 H       1  UNL1        0.0275
     44 H           2.6899   -0.9011    0.0000 H       1  UNL1        0.0540
     45 H           2.4685   -1.9519    0.0000 H       1  UNL1        0.0540
     46 H           1.6900    2.0074    0.0000 H       1  UNL1        0.0280
     47 H           1.4631    1.1604    0.0000 H       1  UNL1        0.0280
     48 H           2.3100    0.9335    0.0000 H       1  UNL1        0.0280
     49 H           3.4030    3.2804    0.0000 H       1  UNL1        0.0574
     50 H           2.3100    4.0074    0.0000 H       1  UNL1        0.0272
     51 H           1.4631    3.7804    0.0000 H       1  UNL1        0.0272
     52 H           1.6900    2.9335    0.0000 H       1  UNL1        0.0272
@<TRIPOS>BOND
     1     1     7    1
     2     1     8    1
     3    11     2    1
     4     2    22    1
     5     3    15    1
     6     3    19    1
     7    14     4    1
     8     4    40    1
     9     5    19    2
    10     6    22    2
    11     7     8    1
    12     7     9    1
    13     7    12    1
    14     8    10    1
    15     8    27    1
    16     9    11    1
    17     9    28    1
    18     9    29    1
    19    10    14    1
    20    10    30    1
    21    10    31    1
    22    11    13    1
    23    11    32    1
    24    12    33    1
    25    12    34    1
    26    12    35    1
    27    13    15    1
    28    13    17    1
    29    13    36    1
    30    14    16    1
    31    14    37    1
    32    15    18    1
    33    15    38    1
    34    16    18    2
    35    16    20    1
    36    17    19    1
    37    17    21    2
    38    18    39    1
    39    20    41    1
    40    20    42    1
    41    20    43    1
    42    21    44    1
    43    21    45    1
    44    22    23    1
    45    23    24    1
    46    23    25    2
    47    24    46    1
    48    24    47    1
    49    24    48    1
    50    25    26    1
    51    25    49    1
    52    26    50    1
    53    26    51    1
    54    26    52    1
