@<TRIPOS>MOLECULE
IMPHY014108
 54 57 0 0 0
SMALL
GASTEIGER

@<TRIPOS>ATOM
      1 O           5.1350   -2.8813    0.0000 O.3     1  UNL1       -0.3313
      2 O           6.8671   -2.8813    0.0000 O.3     1  UNL1       -0.4608
      3 O           5.1350   -5.8813    0.0000 O.3     1  UNL1       -0.3864
      4 O           3.4030   -4.8813    0.0000 O.3     1  UNL1       -0.3865
      5 O           6.8671   -4.8813    0.0000 O.3     1  UNL1       -0.3829
      6 O           2.5369   -3.3813    0.0000 O.3     1  UNL1       -0.3924
      7 O           6.0010    2.6187    0.0000 O.2     1  UNL1       -0.4618
      8 O           8.5991    1.1187    0.0000 O.2     1  UNL1       -0.2863
      9 O           9.5033    2.6156    0.0000 O.3     1  UNL1       -0.5058
     10 O           7.7452    5.6880    0.0000 O.3     1  UNL1       -0.4949
     11 C           5.1350   -4.8813    0.0000 C.3     1  UNL1        0.1152
     12 C           4.2690   -4.3813    0.0000 C.3     1  UNL1        0.1120
     13 C           4.2690   -3.3813    0.0000 C.3     1  UNL1        0.1140
     14 C           6.0010   -4.3813    0.0000 C.3     1  UNL1        0.1454
     15 C           6.0010   -3.3813    0.0000 C.3     1  UNL1        0.2308
     16 C           3.4030   -2.8813    0.0000 C.3     1  UNL1        0.0731
     17 C           6.8671   -1.8813    0.0000 C.ar    1  UNL1        0.1240
     18 C           7.7331   -1.3813    0.0000 C.ar    1  UNL1       -0.0192
     19 C           6.0010   -1.3813    0.0000 C.ar    1  UNL1       -0.0192
     20 C           6.8671    0.1187    0.0000 C.ar    1  UNL1       -0.0110
     21 C           7.7331   -0.3813    0.0000 C.ar    1  UNL1       -0.0504
     22 C           6.0010   -0.3813    0.0000 C.ar    1  UNL1       -0.0504
     23 C           6.8671    1.1187    0.0000 C.ar    1  UNL1        0.0644
     24 C           7.7331    1.6187    0.0000 C.ar    1  UNL1        0.2037
     25 C           7.7331    2.6187    0.0000 C.ar    1  UNL1        0.1060
     26 C           6.8671    3.1187    0.0000 C.ar    1  UNL1        0.1454
     27 C           6.0010    1.6187    0.0000 C.ar    1  UNL1        0.1038
     28 C           8.6431    3.1256    0.0000 C.ar    1  UNL1        0.1347
     29 C           6.8510    4.1602    0.0000 C.ar    1  UNL1        0.0233
     30 C           7.7490    4.6880    0.0000 C.ar    1  UNL1        0.1271
     31 C           8.6511    4.1672    0.0000 C.ar    1  UNL1        0.0225
     32 C           8.6093    6.1913    0.0000 C.3     1  UNL1        0.0788
     33 H           4.5981   -5.1913    0.0000 H       1  UNL1        0.0648
     34 H           4.2690   -5.0013    0.0000 H       1  UNL1        0.0647
     35 H           6.0010   -5.0013    0.0000 H       1  UNL1        0.0683
     36 H           4.2690   -2.7613    0.0000 H       1  UNL1        0.0647
     37 H           6.0010   -2.7613    0.0000 H       1  UNL1        0.1084
     38 H           3.8015   -2.4064    0.0000 H       1  UNL1        0.0584
     39 H           3.0044   -2.4064    0.0000 H       1  UNL1        0.0584
     40 H           5.6720   -6.1913    0.0000 H       1  UNL1        0.2100
     41 H           3.4030   -5.5013    0.0000 H       1  UNL1        0.2100
     42 H           7.4040   -4.5713    0.0000 H       1  UNL1        0.2102
     43 H           2.0000   -3.0713    0.0000 H       1  UNL1        0.2095
     44 H           8.2700   -1.6913    0.0000 H       1  UNL1        0.0654
     45 H           5.4641   -1.6913    0.0000 H       1  UNL1        0.0654
     46 H           8.2700   -0.0713    0.0000 H       1  UNL1        0.0625
     47 H           5.4641   -0.0713    0.0000 H       1  UNL1        0.0625
     48 H           5.4641    1.3087    0.0000 H       1  UNL1        0.1037
     49 H           6.3105    4.4640    0.0000 H       1  UNL1        0.0691
     50 H           9.1892    4.4751    0.0000 H       1  UNL1        0.0691
     51 H          10.0438    2.9193    0.0000 H       1  UNL1        0.2922
     52 H           8.9213    5.6556    0.0000 H       1  UNL1        0.0660
     53 H           9.1450    6.5034    0.0000 H       1  UNL1        0.0660
     54 H           8.2972    6.7270    0.0000 H       1  UNL1        0.0660
@<TRIPOS>BOND
     1     1    13    1
     2     1    15    1
     3     2    15    1
     4     2    17    1
     5     3    11    1
     6     3    40    1
     7     4    12    1
     8     4    41    1
     9     5    14    1
    10     5    42    1
    11     6    16    1
    12     6    43    1
    13     7    26   ar
    14     7    27   ar
    15     8    24    2
    16     9    28    1
    17     9    51    1
    18    10    30    1
    19    10    32    1
    20    11    12    1
    21    11    14    1
    22    11    33    1
    23    12    13    1
    24    12    34    1
    25    13    16    1
    26    13    36    1
    27    14    15    1
    28    14    35    1
    29    15    37    1
    30    16    38    1
    31    16    39    1
    32    17    18   ar
    33    17    19   ar
    34    18    21   ar
    35    18    44    1
    36    19    22   ar
    37    19    45    1
    38    20    21   ar
    39    20    22   ar
    40    20    23    1
    41    21    46    1
    42    22    47    1
    43    23    24   ar
    44    23    27   ar
    45    24    25   ar
    46    25    26   ar
    47    25    28   ar
    48    26    29   ar
    49    27    48    1
    50    28    31   ar
    51    29    30   ar
    52    29    49    1
    53    30    31   ar
    54    31    50    1
    55    32    52    1
    56    32    53    1
    57    32    54    1
