@<TRIPOS>MOLECULE
IMPHY006281
 21 21 0 0 0
SMALL
GASTEIGER

@<TRIPOS>ATOM
      1 O           2.0000   -1.5600    0.0000 O.3     1  UNL1       -0.4950
      2 O           4.5981    1.9400    0.0000 O.3     1  UNL1       -0.3904
      3 O           5.4641   -1.5600    0.0000 O.3     1  UNL1       -0.5066
      4 C           3.7320    0.4400    0.0000 C.ar    1  UNL1       -0.0153
      5 C           2.8660   -0.0600    0.0000 C.ar    1  UNL1       -0.0144
      6 C           2.8660   -1.0600    0.0000 C.ar    1  UNL1        0.1239
      7 C           4.5981   -0.0600    0.0000 C.ar    1  UNL1       -0.0146
      8 C           3.7320    1.4400    0.0000 C.3     1  UNL1        0.0695
      9 C           4.5981   -1.0600    0.0000 C.ar    1  UNL1        0.1207
     10 C           3.7320   -1.5600    0.0000 C.ar    1  UNL1        0.0215
     11 C           2.0000   -2.5600    0.0000 C.3     1  UNL1        0.0788
     12 H           2.3291    0.2500    0.0000 H       1  UNL1        0.0657
     13 H           5.1350    0.2500    0.0000 H       1  UNL1        0.0657
     14 H           3.5200    2.0226    0.0000 H       1  UNL1        0.0607
     15 H           3.1215    1.3323    0.0000 H       1  UNL1        0.0607
     16 H           3.7320   -2.1800    0.0000 H       1  UNL1        0.0691
     17 H           1.3800   -2.5600    0.0000 H       1  UNL1        0.0660
     18 H           2.0000   -3.1800    0.0000 H       1  UNL1        0.0660
     19 H           2.6200   -2.5600    0.0000 H       1  UNL1        0.0660
     20 H           4.5981    2.5600    0.0000 H       1  UNL1        0.2098
     21 H           5.4641   -2.1800    0.0000 H       1  UNL1        0.2921
@<TRIPOS>BOND
     1     1     6    1
     2     1    11    1
     3     2     8    1
     4     2    20    1
     5     3     9    1
     6     3    21    1
     7     4     5   ar
     8     4     7   ar
     9     4     8    1
    10     5     6   ar
    11     5    12    1
    12     6    10   ar
    13     7     9   ar
    14     7    13    1
    15     8    14    1
    16     8    15    1
    17     9    10   ar
    18    10    16    1
    19    11    17    1
    20    11    18    1
    21    11    19    1
