@<TRIPOS>MOLECULE
IMPHY003100
 51 53 0 0 0
SMALL
GASTEIGER

@<TRIPOS>ATOM
      1 O           5.3788   -2.2731    0.0000 O.3     1  UNL1       -0.4907
      2 O           7.0622   -3.4400    0.0000 O.3     1  UNL1       -0.4885
      3 O           8.9077   -2.5513    0.0000 O.3     1  UNL1       -0.5032
      4 O           2.2948   -0.5920    0.0000 O.3     1  UNL1       -0.4913
      5 O           2.7031    1.2084    0.0000 O.2     1  UNL1       -0.2840
      6 O           7.0052    3.0308    0.0000 O.2     1  UNL1       -0.2761
      7 N           5.4447    2.2793    0.0000 N.am    1  UNL1       -0.3087
      8 C           5.8786    1.3783    0.0000 C.3     1  UNL1        0.0493
      9 C           6.8786    1.3783    0.0000 C.3     1  UNL1       -0.0263
     10 C           7.5021    0.5965    0.0000 C.3     1  UNL1       -0.0249
     11 C           5.2551    0.5965    0.0000 C.ar    1  UNL1       -0.0157
     12 C           7.2796   -0.3784    0.0000 C.ar    1  UNL1       -0.0324
     13 C           6.3786   -0.8123    0.0000 C.ar    1  UNL1        0.0312
     14 C           5.4776   -0.3784    0.0000 C.ar    1  UNL1       -0.0088
     15 C           6.2847   -1.8497    0.0000 C.ar    1  UNL1        0.1731
     16 C           8.1491   -0.9519    0.0000 C.ar    1  UNL1       -0.0125
     17 C           4.3686    1.0161    0.0000 C.ar    1  UNL1       -0.0057
     18 C           4.8610   -1.1411    0.0000 C.ar    1  UNL1       -0.0500
     19 C           7.1408   -2.4431    0.0000 C.ar    1  UNL1        0.2039
     20 C           8.0793   -1.9912    0.0000 C.ar    1  UNL1        0.1625
     21 C           3.4866    0.5870    0.0000 C.ar    1  UNL1        0.2206
     22 C           6.0080    3.1055    0.0000 C.2     1  UNL1        0.2104
     23 C           3.8802   -1.1372    0.0000 C.ar    1  UNL1       -0.0155
     24 C           3.2697   -0.3695    0.0000 C.ar    1  UNL1        0.1665
     25 C           5.5741    4.0065    0.0000 C.3     1  UNL1        0.0122
     26 C           5.2926   -3.2694    0.0000 C.3     1  UNL1        0.0790
     27 C           7.8863   -4.0065    0.0000 C.3     1  UNL1        0.0791
     28 C           2.0000   -1.5476    0.0000 C.3     1  UNL1        0.0790
     29 H           6.2084    1.9033    0.0000 H       1  UNL1        0.0548
     30 H           7.4372    1.6473    0.0000 H       1  UNL1        0.0289
     31 H           6.7406    1.9828    0.0000 H       1  UNL1        0.0289
     32 H           8.0607    0.3275    0.0000 H       1  UNL1        0.0314
     33 H           7.8886    1.0812    0.0000 H       1  UNL1        0.0314
     34 H           4.8264    2.3256    0.0000 H       1  UNL1        0.1493
     35 H           8.7046   -0.6764    0.0000 H       1  UNL1        0.0658
     36 H           4.3652    1.6361    0.0000 H       1  UNL1        0.0660
     37 H           5.1270   -1.7012    0.0000 H       1  UNL1        0.0625
     38 H           3.6097   -1.6950    0.0000 H       1  UNL1        0.0655
     39 H           6.1327    4.2755    0.0000 H       1  UNL1        0.0322
     40 H           5.3051    4.5651    0.0000 H       1  UNL1        0.0322
     41 H           5.0155    3.7375    0.0000 H       1  UNL1        0.0322
     42 H           9.4653   -2.2801    0.0000 H       1  UNL1        0.2923
     43 H           4.6749   -3.2159    0.0000 H       1  UNL1        0.0660
     44 H           5.2391   -3.8871    0.0000 H       1  UNL1        0.0660
     45 H           5.9102   -3.3229    0.0000 H       1  UNL1        0.0660
     46 H           7.5351   -4.5174    0.0000 H       1  UNL1        0.0660
     47 H           8.3972   -4.3577    0.0000 H       1  UNL1        0.0660
     48 H           8.2375   -3.4956    0.0000 H       1  UNL1        0.0660
     49 H           1.4075   -1.3649    0.0000 H       1  UNL1        0.0660
     50 H           1.8172   -2.1401    0.0000 H       1  UNL1        0.0660
     51 H           2.5925   -1.7304    0.0000 H       1  UNL1        0.0660
@<TRIPOS>BOND
     1     1    15    1
     2     1    26    1
     3     2    19    1
     4     2    27    1
     5     3    20    1
     6     3    42    1
     7     4    24    1
     8     4    28    1
     9     5    21    2
    10     6    22    2
    11     8     7    1
    12     7    22   am
    13     7    34    1
    14     8     9    1
    15     8    11    1
    16     8    29    1
    17     9    10    1
    18     9    30    1
    19     9    31    1
    20    10    12    1
    21    10    32    1
    22    10    33    1
    23    11    14   ar
    24    11    17   ar
    25    12    13   ar
    26    12    16   ar
    27    13    14    1
    28    13    15   ar
    29    14    18   ar
    30    15    19   ar
    31    16    20   ar
    32    16    35    1
    33    17    21   ar
    34    17    36    1
    35    18    23   ar
    36    18    37    1
    37    19    20   ar
    38    21    24   ar
    39    22    25    1
    40    23    24   ar
    41    23    38    1
    42    25    39    1
    43    25    40    1
    44    25    41    1
    45    26    43    1
    46    26    44    1
    47    26    45    1
    48    27    46    1
    49    27    47    1
    50    27    48    1
    51    28    49    1
    52    28    50    1
    53    28    51    1
