@<TRIPOS>MOLECULE
IMPHY009043
 80 82 0 0 0
SMALL
GASTEIGER

@<TRIPOS>ATOM
      1 C          12.4266    1.2644    0.0000 C.3     1  UNL1       -0.0220
      2 C          11.5606    0.7644    0.0000 C.3     1  UNL1       -0.0137
      3 C          13.2926    0.7644    0.0000 C.3     1  UNL1       -0.0265
      4 C          14.2026    1.2713    0.0000 C.3     1  UNL1       -0.0313
      5 C          10.6144   -0.5403    0.0000 C.3     1  UNL1       -0.0082
      6 C          11.5606   -0.2356    0.0000 C.2     1  UNL1       -0.0637
      7 C          12.4106    2.3059    0.0000 C.3     1  UNL1       -0.0468
      8 C          10.6144    1.0692    0.0000 C.3     1  UNL1       -0.0452
      9 C          13.2926   -0.2356    0.0000 C.3     1  UNL1       -0.0306
     10 C          10.0308    0.2644    0.0000 C.3     1  UNL1       -0.0431
     11 C          14.2107    2.3129    0.0000 C.3     1  UNL1       -0.0476
     12 C          13.3086    2.8337    0.0000 C.3     1  UNL1       -0.0520
     13 C          11.5606    1.7644    0.0000 C.3     1  UNL1       -0.0587
     14 C          12.4266   -0.7356    0.0000 C.2     1  UNL1       -0.0837
     15 C           9.8043   -1.1267    0.0000 C.3     1  UNL1       -0.0345
     16 C          15.2026    1.2597    0.0000 C.3     1  UNL1       -0.0595
     17 C          14.6926    0.3995    0.0000 C.3     1  UNL1       -0.0595
     18 C          10.9217   -1.4919    0.0000 C.3     1  UNL1       -0.0556
     19 C           8.8915   -0.7184    0.0000 C.3     1  UNL1       -0.0460
     20 C           9.9071   -2.1214    0.0000 C.3     1  UNL1       -0.0616
     21 C           8.0815   -1.3048    0.0000 C.3     1  UNL1       -0.0317
     22 C           7.1686   -0.8965    0.0000 C.2     1  UNL1       -0.0765
     23 C           7.0658    0.0982    0.0000 C.3     1  UNL1       -0.0438
     24 C           6.3586   -1.4828    0.0000 C.2     1  UNL1       -0.0847
     25 C           5.4458   -1.0745    0.0000 C.3     1  UNL1       -0.0311
     26 C           4.6357   -1.6609    0.0000 C.3     1  UNL1       -0.0311
     27 C           3.7229   -1.2526    0.0000 C.2     1  UNL1       -0.0850
     28 C           2.9128   -1.8390    0.0000 C.2     1  UNL1       -0.0796
     29 C           2.0000   -1.4307    0.0000 C.3     1  UNL1       -0.0440
     30 C           3.0156   -2.8337    0.0000 C.3     1  UNL1       -0.0440
     31 H          12.2967    0.3394    0.0000 H       1  UNL1        0.0351
     32 H          14.0255    0.3338    0.0000 H       1  UNL1        0.0314
     33 H          12.1925    2.8863    0.0000 H       1  UNL1        0.0271
     34 H          11.8014    2.1904    0.0000 H       1  UNL1        0.0271
     35 H          10.8654    1.6360    0.0000 H       1  UNL1        0.0271
     36 H          10.0770    1.3784    0.0000 H       1  UNL1        0.0271
     37 H          13.5047   -0.8182    0.0000 H       1  UNL1        0.0310
     38 H          13.9032   -0.1279    0.0000 H       1  UNL1        0.0310
     39 H           9.5699    0.6791    0.0000 H       1  UNL1        0.0274
     40 H           9.5699   -0.1503    0.0000 H       1  UNL1        0.0274
     41 H          14.8207    2.2021    0.0000 H       1  UNL1        0.0271
     42 H          14.4242    2.8949    0.0000 H       1  UNL1        0.0271
     43 H          13.7059    3.3096    0.0000 H       1  UNL1        0.0266
     44 H          12.9076    3.3066    0.0000 H       1  UNL1        0.0266
     45 H          11.8706    2.3013    0.0000 H       1  UNL1        0.0235
     46 H          11.0237    2.0744    0.0000 H       1  UNL1        0.0235
     47 H          11.2506    1.2275    0.0000 H       1  UNL1        0.0235
     48 H          12.4266   -1.3556    0.0000 H       1  UNL1        0.0572
     49 H          10.3703   -1.3799    0.0000 H       1  UNL1        0.0307
     50 H          15.1954    0.6397    0.0000 H       1  UNL1        0.0235
     51 H          15.8225    1.2525    0.0000 H       1  UNL1        0.0235
     52 H          15.2097    1.8796    0.0000 H       1  UNL1        0.0235
     53 H          14.1521    0.0957    0.0000 H       1  UNL1        0.0235
     54 H          14.9964   -0.1410    0.0000 H       1  UNL1        0.0235
     55 H          15.2331    0.7033    0.0000 H       1  UNL1        0.0235
     56 H          10.3318   -1.6825    0.0000 H       1  UNL1        0.0238
     57 H          11.1123   -2.0819    0.0000 H       1  UNL1        0.0238
     58 H          11.5117   -1.3013    0.0000 H       1  UNL1        0.0238
     59 H           9.2391   -0.2050    0.0000 H       1  UNL1        0.0271
     60 H           8.4462   -0.2869    0.0000 H       1  UNL1        0.0271
     61 H           9.2904   -2.1851    0.0000 H       1  UNL1        0.0233
     62 H           9.9709   -2.7381    0.0000 H       1  UNL1        0.0233
     63 H          10.5239   -2.0577    0.0000 H       1  UNL1        0.0233
     64 H           7.7339   -1.8182    0.0000 H       1  UNL1        0.0310
     65 H           8.5267   -1.7362    0.0000 H       1  UNL1        0.0310
     66 H           7.6825    0.1620    0.0000 H       1  UNL1        0.0274
     67 H           7.0021    0.7150    0.0000 H       1  UNL1        0.0274
     68 H           6.4491    0.0345    0.0000 H       1  UNL1        0.0274
     69 H           6.4223   -2.0995    0.0000 H       1  UNL1        0.0572
     70 H           5.7933   -0.5611    0.0000 H       1  UNL1        0.0310
     71 H           5.0005   -0.6431    0.0000 H       1  UNL1        0.0310
     72 H           4.2881   -2.1743    0.0000 H       1  UNL1        0.0310
     73 H           5.0810   -2.0924    0.0000 H       1  UNL1        0.0310
     74 H           3.6591   -0.6359    0.0000 H       1  UNL1        0.0572
     75 H           2.2532   -0.8647    0.0000 H       1  UNL1        0.0274
     76 H           1.4340   -1.1775    0.0000 H       1  UNL1        0.0274
     77 H           1.7468   -1.9966    0.0000 H       1  UNL1        0.0274
     78 H           2.3989   -2.8974    0.0000 H       1  UNL1        0.0274
     79 H           3.0794   -3.4504    0.0000 H       1  UNL1        0.0274
     80 H           3.6324   -2.7699    0.0000 H       1  UNL1        0.0274
@<TRIPOS>BOND
     1     1     2    1
     2     1     3    1
     3     1     7    1
     4     1    13    1
     5     2     6    1
     6     2     8    1
     7     2    31    1
     8     3     4    1
     9     3     9    1
    10     3    32    1
    11     4    11    1
    12     4    16    1
    13     4    17    1
    14     5     6    1
    15     5    10    1
    16     5    15    1
    17     5    18    1
    18     6    14    2
    19     7    12    1
    20     7    33    1
    21     7    34    1
    22     8    10    1
    23     8    35    1
    24     8    36    1
    25     9    14    1
    26     9    37    1
    27     9    38    1
    28    10    39    1
    29    10    40    1
    30    11    12    1
    31    11    41    1
    32    11    42    1
    33    12    43    1
    34    12    44    1
    35    13    45    1
    36    13    46    1
    37    13    47    1
    38    14    48    1
    39    15    19    1
    40    15    20    1
    41    15    49    1
    42    16    50    1
    43    16    51    1
    44    16    52    1
    45    17    53    1
    46    17    54    1
    47    17    55    1
    48    18    56    1
    49    18    57    1
    50    18    58    1
    51    19    21    1
    52    19    59    1
    53    19    60    1
    54    20    61    1
    55    20    62    1
    56    20    63    1
    57    21    22    1
    58    21    64    1
    59    21    65    1
    60    22    23    1
    61    22    24    2
    62    23    66    1
    63    23    67    1
    64    23    68    1
    65    24    25    1
    66    24    69    1
    67    25    26    1
    68    25    70    1
    69    25    71    1
    70    26    27    1
    71    26    72    1
    72    26    73    1
    73    27    28    2
    74    27    74    1
    75    28    29    1
    76    28    30    1
    77    29    75    1
    78    29    76    1
    79    29    77    1
    80    30    78    1
    81    30    79    1
    82    30    80    1
