@<TRIPOS>MOLECULE
IMPHY003390
 61 64 0 0 0
SMALL
GASTEIGER

@<TRIPOS>ATOM
      1 O           8.1055    2.5670    0.0000 O.3     1  UNL1       -0.3827
      2 O           9.8793    0.5362    0.0000 O.3     1  UNL1       -0.3827
      3 O           4.5510   -0.7009    0.0000 O.3     1  UNL1       -0.4522
      4 O           4.5510   -2.3104    0.0000 O.3     1  UNL1       -0.4489
      5 O           6.3632   -3.5056    0.0000 O.3     1  UNL1       -0.4913
      6 O           4.5806    3.5157    0.0000 O.3     1  UNL1       -0.4914
      7 O           2.8602    2.4957    0.0000 O.3     1  UNL1       -0.4915
      8 C           7.2452    1.0636    0.0000 C.3     1  UNL1       -0.0014
      9 C           8.1473    0.5428    0.0000 C.3     1  UNL1       -0.0078
     10 C           6.3472    0.5359    0.0000 C.3     1  UNL1        0.0184
     11 C           8.1393   -0.4988    0.0000 C.3     1  UNL1       -0.0219
     12 C           6.3632   -0.5056    0.0000 C.ar    1  UNL1        0.0092
     13 C           7.2293   -1.0056    0.0000 C.ar    1  UNL1       -0.0361
     14 C           7.2414    2.0636    0.0000 C.3     1  UNL1        0.0513
     15 C           9.0152    1.0395    0.0000 C.3     1  UNL1        0.0508
     16 C           5.4754    1.0258    0.0000 C.ar    1  UNL1       -0.0358
     17 C           5.4972   -1.0056    0.0000 C.ar    1  UNL1        0.1739
     18 C           7.2293   -2.0056    0.0000 C.ar    1  UNL1       -0.0126
     19 C           5.4972   -2.0056    0.0000 C.ar    1  UNL1        0.2078
     20 C           6.3632   -2.5056    0.0000 C.ar    1  UNL1        0.1656
     21 C           5.4639    2.0258    0.0000 C.ar    1  UNL1       -0.0125
     22 C           4.6152    0.5159    0.0000 C.ar    1  UNL1       -0.0543
     23 C           3.9674   -1.5056    0.0000 C.3     1  UNL1        0.2334
     24 C           4.5921    2.5157    0.0000 C.ar    1  UNL1        0.1618
     25 C           3.7435    1.0058    0.0000 C.ar    1  UNL1       -0.0160
     26 C           3.7319    2.0058    0.0000 C.ar    1  UNL1        0.1615
     27 C           8.1016    3.5670    0.0000 C.3     1  UNL1        0.0365
     28 C          10.7473    1.0328    0.0000 C.3     1  UNL1        0.0365
     29 C           7.2293   -4.0056    0.0000 C.3     1  UNL1        0.0790
     30 C           3.7088    4.0056    0.0000 C.3     1  UNL1        0.0790
     31 C           2.0000    1.9857    0.0000 C.3     1  UNL1        0.0790
     32 H           7.7816    1.3747    0.0000 H       1  UNL1        0.0335
     33 H           8.1485    1.1628    0.0000 H       1  UNL1        0.0330
     34 H           6.3412    1.1559    0.0000 H       1  UNL1        0.0402
     35 H           8.3438   -1.0841    0.0000 H       1  UNL1        0.0317
     36 H           8.7509   -0.3974    0.0000 H       1  UNL1        0.0317
     37 H           7.0271    2.6454    0.0000 H       1  UNL1        0.0563
     38 H           6.6312    1.9536    0.0000 H       1  UNL1        0.0563
     39 H           9.4156    1.5129    0.0000 H       1  UNL1        0.0562
     40 H           8.6186    1.5160    0.0000 H       1  UNL1        0.0562
     41 H           7.7662   -2.3156    0.0000 H       1  UNL1        0.0658
     42 H           5.9972    2.3420    0.0000 H       1  UNL1        0.0658
     43 H           4.6224   -0.1041    0.0000 H       1  UNL1        0.0622
     44 H           3.5065   -1.0909    0.0000 H       1  UNL1        0.1166
     45 H           3.5065   -1.9203    0.0000 H       1  UNL1        0.1166
     46 H           3.2102    0.6896    0.0000 H       1  UNL1        0.0655
     47 H           8.7216    3.5694    0.0000 H       1  UNL1        0.0523
     48 H           8.0992    4.1870    0.0000 H       1  UNL1        0.0523
     49 H           7.4816    3.5646    0.0000 H       1  UNL1        0.0523
     50 H          11.0552    0.4947    0.0000 H       1  UNL1        0.0523
     51 H          11.2854    1.3407    0.0000 H       1  UNL1        0.0523
     52 H          10.4394    1.5709    0.0000 H       1  UNL1        0.0523
     53 H           6.9193   -4.5426    0.0000 H       1  UNL1        0.0660
     54 H           7.7662   -4.3156    0.0000 H       1  UNL1        0.0660
     55 H           7.5393   -3.4687    0.0000 H       1  UNL1        0.0660
     56 H           4.0126    4.5461    0.0000 H       1  UNL1        0.0660
     57 H           3.1683    4.3094    0.0000 H       1  UNL1        0.0660
     58 H           3.4050    3.4651    0.0000 H       1  UNL1        0.0660
     59 H           1.6838    2.5190    0.0000 H       1  UNL1        0.0660
     60 H           1.4667    1.6695    0.0000 H       1  UNL1        0.0660
     61 H           2.3162    1.4524    0.0000 H       1  UNL1        0.0660
@<TRIPOS>BOND
     1     1    14    1
     2     1    27    1
     3     2    15    1
     4     2    28    1
     5     3    17    1
     6     3    23    1
     7     4    19    1
     8     4    23    1
     9     5    20    1
    10     5    29    1
    11     6    24    1
    12     6    30    1
    13     7    26    1
    14     7    31    1
    15     8     9    1
    16     8    10    1
    17     8    14    1
    18     8    32    1
    19     9    11    1
    20     9    15    1
    21     9    33    1
    22    10    12    1
    23    10    16    1
    24    10    34    1
    25    11    13    1
    26    11    35    1
    27    11    36    1
    28    12    13   ar
    29    12    17   ar
    30    13    18   ar
    31    14    37    1
    32    14    38    1
    33    15    39    1
    34    15    40    1
    35    16    21   ar
    36    16    22   ar
    37    17    19   ar
    38    18    20   ar
    39    18    41    1
    40    19    20   ar
    41    21    24   ar
    42    21    42    1
    43    22    25   ar
    44    22    43    1
    45    23    44    1
    46    23    45    1
    47    24    26   ar
    48    25    26   ar
    49    25    46    1
    50    27    47    1
    51    27    48    1
    52    27    49    1
    53    28    50    1
    54    28    51    1
    55    28    52    1
    56    29    53    1
    57    29    54    1
    58    29    55    1
    59    30    56    1
    60    30    57    1
    61    30    58    1
    62    31    59    1
    63    31    60    1
    64    31    61    1
