@<TRIPOS>MOLECULE
IMPHY005693
 29 28 0 0 0
SMALL
GASTEIGER

@<TRIPOS>ATOM
      1 O          11.1972    0.7500    0.0000 O.3     1  UNL1       -0.4806
      2 O           2.5369    0.7500    0.0000 O.3     1  UNL1       -0.4806
      3 O           3.4030   -0.7500    0.0000 O.2     1  UNL1       -0.2510
      4 O          10.3312   -0.7500    0.0000 O.2     1  UNL1       -0.2510
      5 C           6.8671    0.2500    0.0000 C.3     1  UNL1       -0.0530
      6 C           6.0010    0.7500    0.0000 C.3     1  UNL1       -0.0526
      7 C           7.7331    0.7500    0.0000 C.3     1  UNL1       -0.0526
      8 C           5.1350    0.2500    0.0000 C.3     1  UNL1       -0.0430
      9 C           8.5991    0.2500    0.0000 C.3     1  UNL1       -0.0430
     10 C           4.2690    0.7500    0.0000 C.3     1  UNL1        0.0448
     11 C           9.4651    0.7500    0.0000 C.3     1  UNL1        0.0448
     12 C           3.4030    0.2500    0.0000 C.2     1  UNL1        0.3047
     13 C          10.3312    0.2500    0.0000 C.2     1  UNL1        0.3047
     14 H           6.4685   -0.2249    0.0000 H       1  UNL1        0.0265
     15 H           7.2656   -0.2249    0.0000 H       1  UNL1        0.0265
     16 H           6.3996    1.2250    0.0000 H       1  UNL1        0.0265
     17 H           5.6025    1.2250    0.0000 H       1  UNL1        0.0265
     18 H           8.1316    1.2250    0.0000 H       1  UNL1        0.0265
     19 H           7.3346    1.2250    0.0000 H       1  UNL1        0.0265
     20 H           4.7365   -0.2249    0.0000 H       1  UNL1        0.0270
     21 H           5.5335   -0.2249    0.0000 H       1  UNL1        0.0270
     22 H           8.2006   -0.2249    0.0000 H       1  UNL1        0.0270
     23 H           8.9976   -0.2249    0.0000 H       1  UNL1        0.0270
     24 H           4.6675    1.2250    0.0000 H       1  UNL1        0.0377
     25 H           3.8705    1.2250    0.0000 H       1  UNL1        0.0377
     26 H           9.8637    1.2250    0.0000 H       1  UNL1        0.0377
     27 H           9.0666    1.2250    0.0000 H       1  UNL1        0.0377
     28 H          11.7341    0.4400    0.0000 H       1  UNL1        0.2951
     29 H           2.0000    0.4400    0.0000 H       1  UNL1        0.2951
@<TRIPOS>BOND
     1     1    13    1
     2     1    28    1
     3     2    12    1
     4     2    29    1
     5     3    12    2
     6     4    13    2
     7     5     6    1
     8     5     7    1
     9     5    14    1
    10     5    15    1
    11     6     8    1
    12     6    16    1
    13     6    17    1
    14     7     9    1
    15     7    18    1
    16     7    19    1
    17     8    10    1
    18     8    20    1
    19     8    21    1
    20     9    11    1
    21     9    22    1
    22     9    23    1
    23    10    12    1
    24    10    24    1
    25    10    25    1
    26    11    13    1
    27    11    26    1
    28    11    27    1
