@<TRIPOS>MOLECULE
IMPHY007210
 31 34 0 0 0
SMALL
GASTEIGER

@<TRIPOS>ATOM
      1 O           3.4519   -2.7745    0.0000 O.3     1  UNL1       -0.4488
      2 O           2.0000   -1.9363    0.0000 O.3     1  UNL1       -0.4524
      3 O           6.1548    1.9741    0.0000 O.2     1  UNL1       -0.4449
      4 O           5.4396   -1.7245    0.0000 O.3     1  UNL1       -0.4894
      5 O           2.8197    1.8070    0.0000 O.3     1  UNL1       -0.4937
      6 N           5.4178    0.3070    0.0000 N.ar    1  UNL1       -0.2080
      7 C           3.6857    0.3070    0.0000 C.ar    1  UNL1        0.0501
      8 C           4.5518   -0.1930    0.0000 C.ar    1  UNL1        0.1237
      9 C           3.6698   -1.7623    0.0000 C.ar    1  UNL1        0.2097
     10 C           4.5678   -1.2345    0.0000 C.ar    1  UNL1        0.1915
     11 C           3.6857    1.3070    0.0000 C.ar    1  UNL1        0.1418
     12 C           2.7677   -1.2414    0.0000 C.ar    1  UNL1        0.1707
     13 C           2.7757   -0.1998    0.0000 C.ar    1  UNL1       -0.0032
     14 C           4.5518    1.8070    0.0000 C.ar    1  UNL1        0.0820
     15 C           5.4178    1.3070    0.0000 C.ar    1  UNL1        0.2312
     16 C           2.4220   -2.8819    0.0000 C.3     1  UNL1        0.2334
     17 C           4.7610    2.7788    0.0000 C.ar    1  UNL1       -0.0109
     18 C           5.7497    2.8819    0.0000 C.ar    1  UNL1        0.0952
     19 C           5.4511   -2.7244    0.0000 C.3     1  UNL1        0.0791
     20 C           2.8197    2.8070    0.0000 C.3     1  UNL1        0.0788
     21 H           2.2424    0.1163    0.0000 H       1  UNL1        0.0663
     22 H           1.8324   -3.0736    0.0000 H       1  UNL1        0.1166
     23 H           2.5507   -3.4884    0.0000 H       1  UNL1        0.1166
     24 H           4.3469    3.2403    0.0000 H       1  UNL1        0.0657
     25 H           6.0597    3.4188    0.0000 H       1  UNL1        0.1030
     26 H           4.8312   -2.7316    0.0000 H       1  UNL1        0.0660
     27 H           5.4583   -3.3444    0.0000 H       1  UNL1        0.0660
     28 H           6.0711   -2.7172    0.0000 H       1  UNL1        0.0660
     29 H           3.4397    2.8070    0.0000 H       1  UNL1        0.0660
     30 H           2.8197    3.4270    0.0000 H       1  UNL1        0.0660
     31 H           2.1997    2.8070    0.0000 H       1  UNL1        0.0660
@<TRIPOS>BOND
     1     1     9    1
     2     1    16    1
     3     2    12    1
     4     2    16    1
     5     3    15   ar
     6     3    18   ar
     7     4    10    1
     8     4    19    1
     9     5    11    1
    10     5    20    1
    11     6     8   ar
    12     6    15   ar
    13     7     8   ar
    14     7    11   ar
    15     7    13   ar
    16     8    10   ar
    17     9    10   ar
    18     9    12   ar
    19    11    14   ar
    20    12    13   ar
    21    13    21    1
    22    14    15   ar
    23    14    17   ar
    24    16    22    1
    25    16    23    1
    26    17    18   ar
    27    17    24    1
    28    18    25    1
    29    19    26    1
    30    19    27    1
    31    19    28    1
    32    20    29    1
    33    20    30    1
    34    20    31    1
