@<TRIPOS>MOLECULE
IMPHY013007
 41 43 0 0 0
SMALL
GASTEIGER

@<TRIPOS>ATOM
      1 O           6.6498    3.0500    0.0000 O.3     1  UNL1       -0.4930
      2 O           8.3780   -0.2055    0.0000 O.2     1  UNL1       -0.2957
      3 N           4.5274    2.4509    0.0000 N.ar    1  UNL1       -0.3513
      4 C           5.0274    0.9121    0.0000 C.ar    1  UNL1        0.0151
      5 C           5.3364    1.8631    0.0000 C.ar    1  UNL1        0.0900
      6 C           5.7123    0.1273    0.0000 C.ar    1  UNL1       -0.0235
      7 C           4.0274    0.9121    0.0000 C.ar    1  UNL1        0.0078
      8 C           3.7183    1.8631    0.0000 C.ar    1  UNL1        0.0476
      9 C           5.3923   -0.8201    0.0000 C.3     1  UNL1       -0.0079
     10 C           6.7328    0.3360    0.0000 C.ar    1  UNL1        0.0218
     11 C           6.3518    2.0954    0.0000 C.ar    1  UNL1        0.1446
     12 C           7.0547    1.3267    0.0000 C.ar    1  UNL1       -0.0074
     13 C           3.3424    0.1273    0.0000 C.ar    1  UNL1       -0.0520
     14 C           2.7029    2.0954    0.0000 C.ar    1  UNL1       -0.0378
     15 C           6.0528   -1.5709    0.0000 C.2     1  UNL1       -0.0809
     16 C           2.3219    0.3360    0.0000 C.ar    1  UNL1       -0.0611
     17 C           2.0000    1.3267    0.0000 C.ar    1  UNL1       -0.0598
     18 C           7.3991   -0.4097    0.0000 C.2     1  UNL1        0.1506
     19 C           5.7328   -2.5183    0.0000 C.2     1  UNL1       -0.0793
     20 C           6.3933   -3.2692    0.0000 C.3     1  UNL1       -0.0440
     21 C           4.7524   -2.7149    0.0000 C.3     1  UNL1       -0.0440
     22 C           7.6255    3.2692    0.0000 C.3     1  UNL1        0.0789
     23 H           4.5274    3.0709    0.0000 H       1  UNL1        0.1660
     24 H           4.8483   -0.5227    0.0000 H       1  UNL1        0.0356
     25 H           5.0050   -1.3042    0.0000 H       1  UNL1        0.0356
     26 H           7.6607    1.4579    0.0000 H       1  UNL1        0.0662
     27 H           3.5408   -0.4601    0.0000 H       1  UNL1        0.0624
     28 H           2.5182    2.6872    0.0000 H       1  UNL1        0.0638
     29 H           6.6607   -1.4490    0.0000 H       1  UNL1        0.0575
     30 H           1.9088   -0.1263    0.0000 H       1  UNL1        0.0618
     31 H           1.3940    1.4579    0.0000 H       1  UNL1        0.0618
     32 H           7.2052   -0.9986    0.0000 H       1  UNL1        0.1081
     33 H           5.9278   -3.6787    0.0000 H       1  UNL1        0.0274
     34 H           6.8028   -3.7347    0.0000 H       1  UNL1        0.0274
     35 H           6.8588   -2.8597    0.0000 H       1  UNL1        0.0274
     36 H           4.6305   -2.1070    0.0000 H       1  UNL1        0.0274
     37 H           4.1444   -2.8368    0.0000 H       1  UNL1        0.0274
     38 H           4.8742   -3.3228    0.0000 H       1  UNL1        0.0274
     39 H           7.7614    2.6642    0.0000 H       1  UNL1        0.0660
     40 H           8.2304    3.4051    0.0000 H       1  UNL1        0.0660
     41 H           7.4896    3.8741    0.0000 H       1  UNL1        0.0660
@<TRIPOS>BOND
     1     1    11    1
     2     1    22    1
     3     2    18    2
     4     3     5   ar
     5     3     8   ar
     6     3    23    1
     7     4     5   ar
     8     4     6   ar
     9     4     7   ar
    10     5    11   ar
    11     6     9    1
    12     6    10   ar
    13     7     8   ar
    14     7    13   ar
    15     8    14   ar
    16     9    15    1
    17     9    24    1
    18     9    25    1
    19    10    12   ar
    20    10    18    1
    21    11    12   ar
    22    12    26    1
    23    13    16   ar
    24    13    27    1
    25    14    17   ar
    26    14    28    1
    27    15    19    2
    28    15    29    1
    29    16    17   ar
    30    16    30    1
    31    17    31    1
    32    18    32    1
    33    19    20    1
    34    19    21    1
    35    20    33    1
    36    20    34    1
    37    20    35    1
    38    21    36    1
    39    21    37    1
    40    21    38    1
    41    22    39    1
    42    22    40    1
    43    22    41    1
