@<TRIPOS>MOLECULE
IMPHY017394
 13 12 0 0 0
SMALL
GASTEIGER

@<TRIPOS>ATOM
      1 N           6.3301   -0.7500    0.0000 N.1     1  UNL1       -0.1915
      2 C           2.8660    0.2500    0.0000 C.3     1  UNL1       -0.0367
      3 C           2.0000   -0.2500    0.0000 C.3     1  UNL1       -0.0618
      4 C           3.7320   -0.2500    0.0000 C.2     1  UNL1       -0.0741
      5 C           4.5981    0.2500    0.0000 C.2     1  UNL1        0.0114
      6 C           5.4641   -0.2500    0.0000 C.1     1  UNL1        0.0910
      7 H           3.2646    0.7249    0.0000 H       1  UNL1        0.0305
      8 H           2.4675    0.7249    0.0000 H       1  UNL1        0.0305
      9 H           1.6900    0.2869    0.0000 H       1  UNL1        0.0233
     10 H           1.4631   -0.5600    0.0000 H       1  UNL1        0.0233
     11 H           2.3100   -0.7869    0.0000 H       1  UNL1        0.0233
     12 H           3.7320   -0.8700    0.0000 H       1  UNL1        0.0579
     13 H           4.5981    0.8700    0.0000 H       1  UNL1        0.0729
@<TRIPOS>BOND
     1     1     6    3
     2     2     3    1
     3     2     4    1
     4     2     7    1
     5     2     8    1
     6     3     9    1
     7     3    10    1
     8     3    11    1
     9     4     5    2
    10     4    12    1
    11     5     6    1
    12     5    13    1
