@<TRIPOS>MOLECULE
IMPHY008053
 56 59 0 0 0
SMALL
GASTEIGER

@<TRIPOS>ATOM
      1 O           4.6200    3.4023    0.0000 O.3     1  UNL1       -0.3890
      2 O           2.6200    3.4100    0.0000 O.3     1  UNL1       -0.3924
      3 C           5.4953   -1.8990    0.0000 C.3     1  UNL1       -0.0200
      4 C           5.5113   -2.9405    0.0000 C.3     1  UNL1       -0.0256
      5 C           4.6293   -1.3990    0.0000 C.3     1  UNL1       -0.0292
      6 C           6.4058   -2.4059    0.0000 C.3     1  UNL1       -0.0407
      7 C           4.6293   -0.3990    0.0000 C.3     1  UNL1       -0.0258
      8 C           6.3613   -1.3990    0.0000 C.3     1  UNL1       -0.0463
      9 C           5.4953    0.1010    0.0000 C.3     1  UNL1       -0.0348
     10 C           4.6133   -3.4683    0.0000 C.3     1  UNL1       -0.0471
     11 C           3.7193   -1.9059    0.0000 C.3     1  UNL1       -0.0492
     12 C           6.3613   -0.3990    0.0000 C.3     1  UNL1       -0.0492
     13 C           3.7112   -2.9475    0.0000 C.3     1  UNL1       -0.0523
     14 C           5.5268   -3.9404    0.0000 C.3     1  UNL1       -0.0590
     15 C           3.7193    0.1078    0.0000 C.3     1  UNL1       -0.0465
     16 C           5.5113    1.1425    0.0000 C.3     1  UNL1       -0.0418
     17 C           3.7632   -0.8990    0.0000 C.3     1  UNL1       -0.0590
     18 C           4.6133    1.6702    0.0000 C.3     1  UNL1       -0.0037
     19 C           3.7112    1.1494    0.0000 C.3     1  UNL1       -0.0447
     20 C           4.1166    2.5382    0.0000 C.3     1  UNL1        0.0836
     21 C           5.1166    2.5343    0.0000 C.3     1  UNL1       -0.0571
     22 C           3.1166    2.5420    0.0000 C.3     1  UNL1        0.0706
     23 H           5.3654   -0.9740    0.0000 H       1  UNL1        0.0312
     24 H           6.8116   -2.8746    0.0000 H       1  UNL1        0.0276
     25 H           6.7969   -1.9248    0.0000 H       1  UNL1        0.0276
     26 H           6.5734   -1.9816    0.0000 H       1  UNL1        0.0271
     27 H           6.9719   -1.2914    0.0000 H       1  UNL1        0.0271
     28 H           6.2347    0.5203    0.0000 H       1  UNL1        0.0306
     29 H           4.2160   -3.9442    0.0000 H       1  UNL1        0.0271
     30 H           5.0143   -3.9412    0.0000 H       1  UNL1        0.0271
     31 H           3.5147   -1.3206    0.0000 H       1  UNL1        0.0268
     32 H           3.1076   -2.0072    0.0000 H       1  UNL1        0.0268
     33 H           6.9719   -0.5067    0.0000 H       1  UNL1        0.0268
     34 H           6.5734    0.1836    0.0000 H       1  UNL1        0.0268
     35 H           3.1012   -2.8367    0.0000 H       1  UNL1        0.0266
     36 H           3.4977   -3.5295    0.0000 H       1  UNL1        0.0266
     37 H           4.9068   -3.9500    0.0000 H       1  UNL1        0.0235
     38 H           5.5363   -4.5603    0.0000 H       1  UNL1        0.0235
     39 H           6.1467   -3.9308    0.0000 H       1  UNL1        0.0235
     40 H           3.1076    0.2092    0.0000 H       1  UNL1        0.0271
     41 H           3.5147   -0.4775    0.0000 H       1  UNL1        0.0271
     42 H           6.1205    1.0270    0.0000 H       1  UNL1        0.0274
     43 H           5.7294    1.7229    0.0000 H       1  UNL1        0.0274
     44 H           3.4532   -0.3621    0.0000 H       1  UNL1        0.0235
     45 H           3.2263   -1.2090    0.0000 H       1  UNL1        0.0235
     46 H           4.0732   -1.4360    0.0000 H       1  UNL1        0.0235
     47 H           3.4977    1.7315    0.0000 H       1  UNL1        0.0272
     48 H           3.1012    1.0386    0.0000 H       1  UNL1        0.0272
     49 H           3.8087    3.0763    0.0000 H       1  UNL1        0.0621
     50 H           5.6524    2.2223    0.0000 H       1  UNL1        0.0236
     51 H           5.4287    3.0701    0.0000 H       1  UNL1        0.0236
     52 H           4.5809    2.8464    0.0000 H       1  UNL1        0.0236
     53 H           2.5332    2.3322    0.0000 H       1  UNL1        0.0583
     54 H           3.2220    1.9310    0.0000 H       1  UNL1        0.0583
     55 H           4.3120    3.9404    0.0000 H       1  UNL1        0.2099
     56 H           2.0000    3.4124    0.0000 H       1  UNL1        0.2095
@<TRIPOS>BOND
     1    20     1    1
     2     1    55    1
     3     2    22    1
     4     2    56    1
     5     3     4    1
     6     3     5    1
     7     3     6    1
     8     3     8    1
     9     4     6    1
    10     4    10    1
    11     4    14    1
    12     5     7    1
    13     5    11    1
    14     5    23    1
    15     6    24    1
    16     6    25    1
    17     7     9    1
    18     7    15    1
    19     7    17    1
    20     8    12    1
    21     8    26    1
    22     8    27    1
    23     9    12    1
    24     9    16    1
    25     9    28    1
    26    10    13    1
    27    10    29    1
    28    10    30    1
    29    11    13    1
    30    11    31    1
    31    11    32    1
    32    12    33    1
    33    12    34    1
    34    13    35    1
    35    13    36    1
    36    14    37    1
    37    14    38    1
    38    14    39    1
    39    15    19    1
    40    15    40    1
    41    15    41    1
    42    16    18    1
    43    16    42    1
    44    16    43    1
    45    17    44    1
    46    17    45    1
    47    17    46    1
    48    18    19    1
    49    18    20    1
    50    18    21    1
    51    19    47    1
    52    19    48    1
    53    20    22    1
    54    20    49    1
    55    21    50    1
    56    21    51    1
    57    21    52    1
    58    22    53    1
    59    22    54    1
