@<TRIPOS>MOLECULE
IMPHY015775
 38 40 0 0 0
SMALL
GASTEIGER

@<TRIPOS>ATOM
      1 O           6.9128   -0.5350    0.0000 O.2     1  UNL1       -0.3007
      2 C           4.2387   -0.6922    0.0000 C.3     1  UNL1       -0.0097
      3 C           3.7382   -1.5675    0.0000 C.3     1  UNL1       -0.0285
      4 C           2.8650   -1.0633    0.0000 C.3     1  UNL1       -0.0247
      5 C           3.3727   -0.1922    0.0000 C.3     1  UNL1       -0.0107
      6 C           5.2195   -0.8991    0.0000 C.3     1  UNL1        0.0209
      7 C           4.4139   -2.3078    0.0000 C.3     1  UNL1       -0.0485
      8 C           5.1048   -0.1922    0.0000 C.3     1  UNL1       -0.0422
      9 C           5.3275   -1.8956    0.0000 C.3     1  UNL1       -0.0430
     10 C           3.3727    0.8078    0.0000 C.2     1  UNL1       -0.0809
     11 C           2.3632   -1.9283    0.0000 C.3     1  UNL1       -0.0590
     12 C           2.0000   -0.5615    0.0000 C.3     1  UNL1       -0.0590
     13 C           5.1048    0.8078    0.0000 C.3     1  UNL1       -0.0314
     14 C           4.2387    1.3078    0.0000 C.2     1  UNL1       -0.0762
     15 C           5.9610   -0.2282    0.0000 C.2     1  UNL1        0.1239
     16 C           4.2387    2.3078    0.0000 C.3     1  UNL1       -0.0438
     17 H           3.2055   -2.2298    0.0000 H       1  UNL1        0.0312
     18 H           2.5521    0.0295    0.0000 H       1  UNL1        0.0354
     19 H           5.7989   -1.1197    0.0000 H       1  UNL1        0.0380
     20 H           3.9145   -2.6753    0.0000 H       1  UNL1        0.0268
     21 H           4.7268   -2.8430    0.0000 H       1  UNL1        0.0268
     22 H           5.3168   -0.7748    0.0000 H       1  UNL1        0.0274
     23 H           5.7154   -0.0845    0.0000 H       1  UNL1        0.0274
     24 H           5.5217   -2.4844    0.0000 H       1  UNL1        0.0272
     25 H           5.9334   -1.7644    0.0000 H       1  UNL1        0.0272
     26 H           2.8358    1.1178    0.0000 H       1  UNL1        0.0575
     27 H           1.8269   -1.6172    0.0000 H       1  UNL1        0.0235
     28 H           2.0521   -2.4646    0.0000 H       1  UNL1        0.0235
     29 H           2.8995   -2.2394    0.0000 H       1  UNL1        0.0235
     30 H           2.3111   -0.0252    0.0000 H       1  UNL1        0.0235
     31 H           1.4637   -0.2504    0.0000 H       1  UNL1        0.0235
     32 H           1.6889   -1.0978    0.0000 H       1  UNL1        0.0235
     33 H           5.7154    0.7001    0.0000 H       1  UNL1        0.0310
     34 H           5.3168    1.3904    0.0000 H       1  UNL1        0.0310
     35 H           5.8307    0.3779    0.0000 H       1  UNL1        0.1029
     36 H           4.8588    2.3078    0.0000 H       1  UNL1        0.0274
     37 H           4.2387    2.9278    0.0000 H       1  UNL1        0.0274
     38 H           3.6188    2.3078    0.0000 H       1  UNL1        0.0274
@<TRIPOS>BOND
     1     1    15    2
     2     2     3    1
     3     2     5    1
     4     2     6    1
     5     2     8    1
     6     3     4    1
     7     3     7    1
     8     3    17    1
     9     4     5    1
    10     4    11    1
    11     4    12    1
    12     5    10    1
    13     5    18    1
    14     6     9    1
    15     6    15    1
    16     6    19    1
    17     7     9    1
    18     7    20    1
    19     7    21    1
    20     8    13    1
    21     8    22    1
    22     8    23    1
    23     9    24    1
    24     9    25    1
    25    10    14    2
    26    10    26    1
    27    11    27    1
    28    11    28    1
    29    11    29    1
    30    12    30    1
    31    12    31    1
    32    12    32    1
    33    13    14    1
    34    13    33    1
    35    13    34    1
    36    14    16    1
    37    15    35    1
    38    16    36    1
    39    16    37    1
    40    16    38    1
