@<TRIPOS>MOLECULE
IMPHY016006
 27 27 0 0 0
SMALL
GASTEIGER

@<TRIPOS>ATOM
      1 O           3.3660   -1.4330    0.0000 O.3     1  UNL1       -0.3650
      2 C           2.8660   -0.5670    0.0000 C.3     1  UNL1        0.0907
      3 C           3.8660   -0.5670    0.0000 C.3     1  UNL1        0.0912
      4 C           4.7320   -0.0670    0.0000 C.3     1  UNL1       -0.0051
      5 C           2.8660    0.4330    0.0000 C.3     1  UNL1       -0.0336
      6 C           2.0000   -1.0670    0.0000 C.3     1  UNL1       -0.0336
      7 C           5.5981   -0.5670    0.0000 C.2     1  UNL1       -0.0786
      8 C           6.4641   -0.0670    0.0000 C.2     1  UNL1       -0.0548
      9 C           7.3301   -0.5670    0.0000 C.3     1  UNL1       -0.0400
     10 C           6.4641    0.9330    0.0000 C.2     1  UNL1       -0.0662
     11 C           7.3301    1.4330    0.0000 C.2     1  UNL1       -0.0985
     12 H           4.3044   -1.0054    0.0000 H       1  UNL1        0.0628
     13 H           5.1306    0.4080    0.0000 H       1  UNL1        0.0333
     14 H           4.3335    0.4080    0.0000 H       1  UNL1        0.0333
     15 H           3.4860    0.4330    0.0000 H       1  UNL1        0.0258
     16 H           2.8660    1.0530    0.0000 H       1  UNL1        0.0258
     17 H           2.2460    0.4330    0.0000 H       1  UNL1        0.0258
     18 H           1.6900   -0.5301    0.0000 H       1  UNL1        0.0258
     19 H           1.4631   -1.3770    0.0000 H       1  UNL1        0.0258
     20 H           2.3100   -1.6039    0.0000 H       1  UNL1        0.0258
     21 H           5.5981   -1.1870    0.0000 H       1  UNL1        0.0575
     22 H           7.0201   -1.1039    0.0000 H       1  UNL1        0.0277
     23 H           7.8671   -0.8770    0.0000 H       1  UNL1        0.0277
     24 H           7.6401   -0.0301    0.0000 H       1  UNL1        0.0277
     25 H           5.9272    1.2430    0.0000 H       1  UNL1        0.0614
     26 H           7.8671    1.1230    0.0000 H       1  UNL1        0.0535
     27 H           7.3301    2.0530    0.0000 H       1  UNL1        0.0535
@<TRIPOS>BOND
     1     1     2    1
     2     1     3    1
     3     2     3    1
     4     2     5    1
     5     2     6    1
     6     3     4    1
     7     3    12    1
     8     4     7    1
     9     4    13    1
    10     4    14    1
    11     5    15    1
    12     5    16    1
    13     5    17    1
    14     6    18    1
    15     6    19    1
    16     6    20    1
    17     7     8    2
    18     7    21    1
    19     8     9    1
    20     8    10    1
    21     9    22    1
    22     9    23    1
    23     9    24    1
    24    10    11    2
    25    10    25    1
    26    11    26    1
    27    11    27    1
