@<TRIPOS>MOLECULE
IMPHY016849
 40 41 0 0 0
SMALL
GASTEIGER

@<TRIPOS>ATOM
      1 O           4.5981   -1.8623    0.0000 O.3     1  UNL1       -0.3912
      2 C           5.4641   -0.3623    0.0000 C.3     1  UNL1        0.0007
      3 C           5.4641    0.6377    0.0000 C.3     1  UNL1       -0.0119
      4 C           4.5981   -0.8623    0.0000 C.3     1  UNL1        0.0617
      5 C           4.5981    1.1377    0.0000 C.3     1  UNL1       -0.0393
      6 C           3.7320    0.6377    0.0000 C.3     1  UNL1       -0.0175
      7 C           6.3580   -0.8970    0.0000 C.3     1  UNL1       -0.0413
      8 C           3.7320   -0.3623    0.0000 C.3     1  UNL1       -0.0198
      9 C           6.3580    1.1724    0.0000 C.2     1  UNL1       -0.0728
     10 C           5.4641   -1.3623    0.0000 C.3     1  UNL1       -0.0567
     11 C           7.2641   -0.3831    0.0000 C.3     1  UNL1       -0.0339
     12 C           7.2641    0.6585    0.0000 C.2     1  UNL1       -0.0847
     13 C           2.8660    1.1377    0.0000 C.2     1  UNL1       -0.0765
     14 C           6.3465    2.1723    0.0000 C.3     1  UNL1       -0.0435
     15 C           2.0000    0.6377    0.0000 C.3     1  UNL1       -0.0438
     16 C           2.8660    2.1377    0.0000 C.2     1  UNL1       -0.0994
     17 H           5.4593    1.2577    0.0000 H       1  UNL1        0.0352
     18 H           4.0611   -1.1723    0.0000 H       1  UNL1        0.0599
     19 H           4.9966    1.6126    0.0000 H       1  UNL1        0.0277
     20 H           4.1996    1.6126    0.0000 H       1  UNL1        0.0277
     21 H           3.1951    0.3277    0.0000 H       1  UNL1        0.0346
     22 H           5.9534   -1.3668    0.0000 H       1  UNL1        0.0274
     23 H           6.7517   -1.3760    0.0000 H       1  UNL1        0.0274
     24 H           3.1215   -0.2546    0.0000 H       1  UNL1        0.0296
     25 H           3.5200   -0.9449    0.0000 H       1  UNL1        0.0296
     26 H           4.8441   -1.3623    0.0000 H       1  UNL1        0.0236
     27 H           5.4641   -1.9823    0.0000 H       1  UNL1        0.0236
     28 H           6.0841   -1.3623    0.0000 H       1  UNL1        0.0236
     29 H           7.4732   -0.9668    0.0000 H       1  UNL1        0.0308
     30 H           7.8750   -0.2770    0.0000 H       1  UNL1        0.0308
     31 H           7.7998    0.9706    0.0000 H       1  UNL1        0.0572
     32 H           4.0611   -2.1723    0.0000 H       1  UNL1        0.2098
     33 H           6.9664    2.1795    0.0000 H       1  UNL1        0.0274
     34 H           6.3393    2.7923    0.0000 H       1  UNL1        0.0274
     35 H           5.7265    2.1651    0.0000 H       1  UNL1        0.0274
     36 H           1.6900    1.1746    0.0000 H       1  UNL1        0.0274
     37 H           1.4631    0.3277    0.0000 H       1  UNL1        0.0274
     38 H           2.3100    0.1008    0.0000 H       1  UNL1        0.0274
     39 H           3.4030    2.4477    0.0000 H       1  UNL1        0.0534
     40 H           2.3291    2.4477    0.0000 H       1  UNL1        0.0534
@<TRIPOS>BOND
     1     1     4    1
     2     1    32    1
     3     2     3    1
     4     2     4    1
     5     2     7    1
     6     2    10    1
     7     3     5    1
     8     3     9    1
     9     3    17    1
    10     4     8    1
    11     4    18    1
    12     5     6    1
    13     5    19    1
    14     5    20    1
    15     6     8    1
    16     6    13    1
    17     6    21    1
    18     7    11    1
    19     7    22    1
    20     7    23    1
    21     8    24    1
    22     8    25    1
    23     9    12    2
    24     9    14    1
    25    10    26    1
    26    10    27    1
    27    10    28    1
    28    11    12    1
    29    11    29    1
    30    11    30    1
    31    12    31    1
    32    13    15    1
    33    13    16    2
    34    14    33    1
    35    14    34    1
    36    14    35    1
    37    15    36    1
    38    15    37    1
    39    15    38    1
    40    16    39    1
    41    16    40    1
