@<TRIPOS>MOLECULE
IMPHY004088
 56 59 0 0 0
SMALL
GASTEIGER

@<TRIPOS>ATOM
      1 O           9.2080   -3.2366    0.0000 O.3     1  UNL1       -0.4646
      2 O           6.2760   -2.6015    0.0000 O.2     1  UNL1       -0.5021
      3 O           3.6526    2.9831    0.0000 O.3     1  UNL1       -0.5061
      4 O           9.5747   -1.5438    0.0000 O.2     1  UNL1       -0.2452
      5 N           6.9654    0.8426    0.0000 N.3     1  UNL1       -0.2934
      6 N           4.5124   -0.2748    0.0000 N.ar    1  UNL1       -0.3564
      7 C           6.2962    0.0995    0.0000 C.3     1  UNL1        0.0515
      8 C           8.3170   -0.3463    0.0000 C.3     1  UNL1       -0.0213
      9 C           7.6200   -1.1204    0.0000 C.3     1  UNL1       -0.0004
     10 C           6.6028   -0.8960    0.0000 C.3     1  UNL1       -0.0244
     11 C           7.9875    0.6418    0.0000 C.3     1  UNL1        0.0029
     12 C           5.3181    0.3074    0.0000 C.ar    1  UNL1        0.0377
     13 C           6.6564    1.7937    0.0000 C.3     1  UNL1        0.0036
     14 C           5.0091    1.2585    0.0000 C.ar    1  UNL1       -0.0129
     15 C           5.6782    2.0016    0.0000 C.3     1  UNL1       -0.0124
     16 C           9.2959   -0.5505    0.0000 C.3     1  UNL1       -0.0513
     17 C           7.9253   -2.0726    0.0000 C.2     1  UNL1        0.0740
     18 C           4.0150    1.2559    0.0000 C.ar    1  UNL1        0.0446
     19 C           3.7086    0.3102    0.0000 C.ar    1  UNL1        0.0505
     20 C           9.9622    0.1953    0.0000 C.3     1  UNL1       -0.0650
     21 C           8.9027   -2.2843    0.0000 C.2     1  UNL1        0.3381
     22 C           7.2533   -2.8132    0.0000 C.2     1  UNL1        0.0943
     23 C           3.3334    2.0354    0.0000 C.ar    1  UNL1        0.1263
     24 C           2.6994    0.0785    0.0000 C.ar    1  UNL1       -0.0376
     25 C           2.3191    1.8270    0.0000 C.ar    1  UNL1       -0.0194
     26 C           2.0000    0.8420    0.0000 C.ar    1  UNL1       -0.0563
     27 C          10.1854   -3.4482    0.0000 C.3     1  UNL1        0.0820
     28 C           5.6040   -3.3421    0.0000 C.3     1  UNL1        0.0780
     29 H           5.7226   -0.5278    0.0000 H       1  UNL1        0.0527
     30 H           8.7292    0.1168    0.0000 H       1  UNL1        0.0319
     31 H           8.2262   -1.2505    0.0000 H       1  UNL1        0.0356
     32 H           5.9878   -0.9744    0.0000 H       1  UNL1        0.0290
     33 H           6.5748   -1.5154    0.0000 H       1  UNL1        0.0290
     34 H           8.6005    0.7344    0.0000 H       1  UNL1        0.0430
     35 H           8.0011    1.2617    0.0000 H       1  UNL1        0.0430
     36 H           7.2703    1.8800    0.0000 H       1  UNL1        0.0430
     37 H           6.6780    2.4133    0.0000 H       1  UNL1        0.0430
     38 H           5.9105    2.5765    0.0000 H       1  UNL1        0.0326
     39 H           5.1524    2.3302    0.0000 H       1  UNL1        0.0326
     40 H           9.0659   -1.1262    0.0000 H       1  UNL1        0.0266
     41 H           9.8230   -0.8770    0.0000 H       1  UNL1        0.0266
     42 H           4.5113   -0.8948    0.0000 H       1  UNL1        0.1656
     43 H          10.4245   -0.2178    0.0000 H       1  UNL1        0.0230
     44 H          10.3752    0.6576    0.0000 H       1  UNL1        0.0230
     45 H           9.4998    0.6083    0.0000 H       1  UNL1        0.0230
     46 H           7.4426   -3.4036    0.0000 H       1  UNL1        0.1028
     47 H           2.5152   -0.5135    0.0000 H       1  UNL1        0.0638
     48 H           1.9056    2.2890    0.0000 H       1  UNL1        0.0654
     49 H           1.3942    0.7102    0.0000 H       1  UNL1        0.0619
     50 H           3.2427    3.4482    0.0000 H       1  UNL1        0.2922
     51 H          10.0541   -4.0542    0.0000 H       1  UNL1        0.0661
     52 H          10.7913   -3.5795    0.0000 H       1  UNL1        0.0661
     53 H          10.3166   -2.8423    0.0000 H       1  UNL1        0.0661
     54 H           5.1449   -2.9254    0.0000 H       1  UNL1        0.0660
     55 H           5.1874   -3.8012    0.0000 H       1  UNL1        0.0660
     56 H           6.0632   -3.7587    0.0000 H       1  UNL1        0.0660
@<TRIPOS>BOND
     1     1    21    1
     2     1    27    1
     3     2    22    1
     4     2    28    1
     5     3    23    1
     6     3    50    1
     7     4    21    2
     8     5     7    1
     9     5    11    1
    10     5    13    1
    11     6    12   ar
    12     6    19   ar
    13     6    42    1
    14     7    10    1
    15     7    12    1
    16     7    29    1
    17     8     9    1
    18     8    11    1
    19     8    16    1
    20     8    30    1
    21     9    10    1
    22     9    17    1
    23     9    31    1
    24    10    32    1
    25    10    33    1
    26    11    34    1
    27    11    35    1
    28    12    14   ar
    29    13    15    1
    30    13    36    1
    31    13    37    1
    32    14    15    1
    33    14    18   ar
    34    15    38    1
    35    15    39    1
    36    16    20    1
    37    16    40    1
    38    16    41    1
    39    17    21    1
    40    17    22    2
    41    18    19   ar
    42    18    23   ar
    43    19    24   ar
    44    20    43    1
    45    20    44    1
    46    20    45    1
    47    22    46    1
    48    23    25   ar
    49    24    26   ar
    50    24    47    1
    51    25    26   ar
    52    25    48    1
    53    26    49    1
    54    27    51    1
    55    27    52    1
    56    27    53    1
    57    28    54    1
    58    28    55    1
    59    28    56    1
