@<TRIPOS>MOLECULE
IMPHY006482
 85 89 0 0 0
SMALL
GASTEIGER

@<TRIPOS>ATOM
      1 O           3.7320   -3.2456    0.0000 O.3     1  UNL1       -0.4610
      2 O           2.8602   -1.7490    0.0000 O.2     1  UNL1       -0.2512
      3 C           7.2622   -1.2214    0.0000 C.3     1  UNL1       -0.0197
      4 C           6.3961   -1.7214    0.0000 C.3     1  UNL1       -0.0192
      5 C           6.3959   -0.7210    0.0000 C.3     1  UNL1       -0.0401
      6 C           8.1282   -1.7214    0.0000 C.3     1  UNL1       -0.0315
      7 C           6.3961   -2.7214    0.0000 C.3     1  UNL1       -0.0263
      8 C           7.2461   -0.1799    0.0000 C.3     1  UNL1       -0.0461
      9 C           9.0382   -1.2146    0.0000 C.3     1  UNL1       -0.0320
     10 C           5.5022   -1.1868    0.0000 C.3     1  UNL1       -0.0432
     11 C           9.0462   -0.1730    0.0000 C.3     1  UNL1       -0.0259
     12 C           8.1282   -2.7214    0.0000 C.3     1  UNL1       -0.0491
     13 C           7.2622   -3.2214    0.0000 C.3     1  UNL1       -0.0488
     14 C           5.5022   -3.2561    0.0000 C.3     1  UNL1        0.0055
     15 C           8.1441    0.3478    0.0000 C.3     1  UNL1       -0.0466
     16 C          10.0342    0.1368    0.0000 C.3     1  UNL1       -0.0328
     17 C           4.5961   -1.7006    0.0000 C.3     1  UNL1       -0.0146
     18 C          10.0213   -1.5396    0.0000 C.3     1  UNL1       -0.0492
     19 C           4.5961   -2.7423    0.0000 C.3     1  UNL1        0.1084
     20 C          10.6357   -0.7061    0.0000 C.3     1  UNL1       -0.0492
     21 C           9.0539    0.8270    0.0000 C.3     1  UNL1       -0.0590
     22 C           5.0122   -4.1279    0.0000 C.3     1  UNL1       -0.0562
     23 C           6.0122   -4.1163    0.0000 C.3     1  UNL1       -0.0562
     24 C          10.3522    1.0849    0.0000 C.3     1  UNL1       -0.0405
     25 C          11.3323    1.2836    0.0000 C.3     1  UNL1       -0.0502
     26 C           9.6901    1.8343    0.0000 C.3     1  UNL1       -0.0621
     27 C           2.8641   -2.7489    0.0000 C.2     1  UNL1        0.3042
     28 C          11.6503    2.2317    0.0000 C.3     1  UNL1       -0.0526
     29 C          12.6303    2.4303    0.0000 C.3     1  UNL1       -0.0507
     30 C           2.0000   -3.2523    0.0000 C.3     1  UNL1        0.0332
     31 C          12.9483    3.3784    0.0000 C.3     1  UNL1       -0.0467
     32 C          13.9284    3.5771    0.0000 C.3     1  UNL1       -0.0627
     33 C          12.2862    4.1279    0.0000 C.3     1  UNL1       -0.0627
     34 H           6.6080   -0.1384    0.0000 H       1  UNL1        0.0276
     35 H           5.7853   -0.6134    0.0000 H       1  UNL1        0.0276
     36 H           8.8610   -2.1521    0.0000 H       1  UNL1        0.0309
     37 H           6.4027   -3.5714    0.0000 H       1  UNL1        0.0313
     38 H           7.0281    0.4005    0.0000 H       1  UNL1        0.0271
     39 H           6.6370   -0.2954    0.0000 H       1  UNL1        0.0271
     40 H           9.1184   -2.0608    0.0000 H       1  UNL1        0.0309
     41 H           5.9068   -0.7170    0.0000 H       1  UNL1        0.0272
     42 H           5.1086   -0.7078    0.0000 H       1  UNL1        0.0272
     43 H           8.3402   -3.3041    0.0000 H       1  UNL1        0.0268
     44 H           8.7388   -2.6138    0.0000 H       1  UNL1        0.0268
     45 H           6.8636   -3.6964    0.0000 H       1  UNL1        0.0268
     46 H           7.6607   -3.6964    0.0000 H       1  UNL1        0.0268
     47 H           8.5414    0.8238    0.0000 H       1  UNL1        0.0271
     48 H           7.7432    0.8207    0.0000 H       1  UNL1        0.0271
     49 H          10.8749    0.2622    0.0000 H       1  UNL1        0.0309
     50 H           9.7659   -2.1046    0.0000 H       1  UNL1        0.0268
     51 H          10.5563   -1.8530    0.0000 H       1  UNL1        0.0268
     52 H           4.3871   -1.1170    0.0000 H       1  UNL1        0.0301
     53 H           3.9853   -1.8067    0.0000 H       1  UNL1        0.0301
     54 H           3.8592   -2.3187    0.0000 H       1  UNL1        0.0739
     55 H          11.0933   -1.1244    0.0000 H       1  UNL1        0.0268
     56 H          11.0997   -0.2949    0.0000 H       1  UNL1        0.0268
     57 H           9.6739    0.8222    0.0000 H       1  UNL1        0.0235
     58 H           9.0587    1.4470    0.0000 H       1  UNL1        0.0235
     59 H           8.4340    0.8317    0.0000 H       1  UNL1        0.0235
     60 H           4.4718   -3.8241    0.0000 H       1  UNL1        0.0236
     61 H           4.7085   -4.6684    0.0000 H       1  UNL1        0.0236
     62 H           5.5527   -4.4316    0.0000 H       1  UNL1        0.0236
     63 H           5.4789   -4.4325    0.0000 H       1  UNL1        0.0236
     64 H           6.3284   -4.6496    0.0000 H       1  UNL1        0.0236
     65 H           6.5455   -3.8001    0.0000 H       1  UNL1        0.0236
     66 H           9.5192    0.9160    0.0000 H       1  UNL1        0.0301
     67 H          11.3481    0.6638    0.0000 H       1  UNL1        0.0268
     68 H          11.9454    1.1915    0.0000 H       1  UNL1        0.0268
     69 H          10.1548    2.2448    0.0000 H       1  UNL1        0.0233
     70 H           9.2796    2.2990    0.0000 H       1  UNL1        0.0233
     71 H           9.2255    1.4238    0.0000 H       1  UNL1        0.0233
     72 H          11.6345    2.8515    0.0000 H       1  UNL1        0.0265
     73 H          11.0372    2.3238    0.0000 H       1  UNL1        0.0265
     74 H          12.6461    1.8105    0.0000 H       1  UNL1        0.0268
     75 H          13.2435    2.3383    0.0000 H       1  UNL1        0.0268
     76 H           1.6879   -2.7165    0.0000 H       1  UNL1        0.0342
     77 H           1.4643   -3.5644    0.0000 H       1  UNL1        0.0342
     78 H           2.3121   -3.7880    0.0000 H       1  UNL1        0.0342
     79 H          13.1455    3.9663    0.0000 H       1  UNL1        0.0295
     80 H          14.0516    2.9695    0.0000 H       1  UNL1        0.0232
     81 H          14.5360    3.7003    0.0000 H       1  UNL1        0.0232
     82 H          13.8052    4.1848    0.0000 H       1  UNL1        0.0232
     83 H          12.7509    4.5384    0.0000 H       1  UNL1        0.0232
     84 H          11.8757    4.5925    0.0000 H       1  UNL1        0.0232
     85 H          11.8216    3.7174    0.0000 H       1  UNL1        0.0232
@<TRIPOS>BOND
     1     1    19    1
     2     1    27    1
     3     2    27    2
     4     3     4    1
     5     3     5    1
     6     3     6    1
     7     3     8    1
     8     4     5    1
     9     4     7    1
    10     4    10    1
    11     5    34    1
    12     5    35    1
    13     6     9    1
    14     6    12    1
    15     6    36    1
    16     7    13    1
    17     7    14    1
    18     7    37    1
    19     8    15    1
    20     8    38    1
    21     8    39    1
    22     9    11    1
    23     9    18    1
    24     9    40    1
    25    10    17    1
    26    10    41    1
    27    10    42    1
    28    11    15    1
    29    11    16    1
    30    11    21    1
    31    12    13    1
    32    12    43    1
    33    12    44    1
    34    13    45    1
    35    13    46    1
    36    14    19    1
    37    14    22    1
    38    14    23    1
    39    15    47    1
    40    15    48    1
    41    16    20    1
    42    16    24    1
    43    16    49    1
    44    17    19    1
    45    17    52    1
    46    17    53    1
    47    18    20    1
    48    18    50    1
    49    18    51    1
    50    19    54    1
    51    20    55    1
    52    20    56    1
    53    21    57    1
    54    21    58    1
    55    21    59    1
    56    22    60    1
    57    22    61    1
    58    22    62    1
    59    23    63    1
    60    23    64    1
    61    23    65    1
    62    24    25    1
    63    24    26    1
    64    24    66    1
    65    25    28    1
    66    25    67    1
    67    25    68    1
    68    26    69    1
    69    26    70    1
    70    26    71    1
    71    27    30    1
    72    28    29    1
    73    28    72    1
    74    28    73    1
    75    29    31    1
    76    29    74    1
    77    29    75    1
    78    30    76    1
    79    30    77    1
    80    30    78    1
    81    31    32    1
    82    31    33    1
    83    31    79    1
    84    32    80    1
    85    32    81    1
    86    32    82    1
    87    33    83    1
    88    33    84    1
    89    33    85    1
