@<TRIPOS>MOLECULE
IMPHY016895
 42 44 0 0 0
SMALL
GASTEIGER

@<TRIPOS>ATOM
      1 O           3.9521   -1.0187    0.0000 O.3     1  UNL1       -0.3639
      2 C           4.7786   -0.4549    0.0000 C.3     1  UNL1        0.1018
      3 C           3.8776   -0.0210    0.0000 C.3     1  UNL1        0.0920
      4 C           5.6796   -0.0210    0.0000 C.3     1  UNL1       -0.0066
      5 C           4.9146   -1.4397    0.0000 C.3     1  UNL1       -0.0119
      6 C           3.6551    0.9539    0.0000 C.3     1  UNL1       -0.0096
      7 C           6.3647   -0.7413    0.0000 C.3     1  UNL1       -0.0469
      8 C           5.9021    0.9539    0.0000 C.3     1  UNL1       -0.0383
      9 C           5.8928   -1.6163    0.0000 C.3     1  UNL1       -0.0474
     10 C           4.2786    1.7357    0.0000 C.3     1  UNL1       -0.0473
     11 C           5.2786    1.7357    0.0000 C.3     1  UNL1       -0.0498
     12 C           2.6802    1.1764    0.0000 C.3     1  UNL1       -0.0414
     13 C           4.1930   -2.1320    0.0000 C.3     1  UNL1       -0.0597
     14 C           6.8770    1.1764    0.0000 C.3     1  UNL1       -0.0621
     15 C           2.3854    2.1320    0.0000 C.3     1  UNL1       -0.0623
     16 C           2.0000    0.4434    0.0000 C.3     1  UNL1       -0.0623
     17 H           3.2645   -0.1134    0.0000 H       1  UNL1        0.0628
     18 H           6.4992    0.2040    0.0000 H       1  UNL1        0.0332
     19 H           5.0937   -2.0332    0.0000 H       1  UNL1        0.0327
     20 H           3.4503    1.5391    0.0000 H       1  UNL1        0.0329
     21 H           6.8764   -1.0913    0.0000 H       1  UNL1        0.0269
     22 H           6.7665   -0.2692    0.0000 H       1  UNL1        0.0269
     23 H           6.3405    0.5155    0.0000 H       1  UNL1        0.0302
     24 H           5.7192   -2.2115    0.0000 H       1  UNL1        0.0269
     25 H           6.4665   -1.8516    0.0000 H       1  UNL1        0.0269
     26 H           4.4166    2.3402    0.0000 H       1  UNL1        0.0269
     27 H           3.7200    2.0047    0.0000 H       1  UNL1        0.0269
     28 H           5.8372    2.0047    0.0000 H       1  UNL1        0.0268
     29 H           5.1406    2.3402    0.0000 H       1  UNL1        0.0268
     30 H           3.1019    1.6309    0.0000 H       1  UNL1        0.0299
     31 H           3.7638   -1.6846    0.0000 H       1  UNL1        0.0233
     32 H           3.7456   -2.5612    0.0000 H       1  UNL1        0.0233
     33 H           4.6222   -2.5794    0.0000 H       1  UNL1        0.0233
     34 H           7.0150    0.5719    0.0000 H       1  UNL1        0.0233
     35 H           7.4815    1.3144    0.0000 H       1  UNL1        0.0233
     36 H           6.7390    1.7809    0.0000 H       1  UNL1        0.0233
     37 H           2.9779    2.3147    0.0000 H       1  UNL1        0.0232
     38 H           2.2027    2.7244    0.0000 H       1  UNL1        0.0232
     39 H           1.7930    1.9492    0.0000 H       1  UNL1        0.0232
     40 H           1.5455    0.8651    0.0000 H       1  UNL1        0.0232
     41 H           1.5783   -0.0111    0.0000 H       1  UNL1        0.0232
     42 H           2.4545    0.0216    0.0000 H       1  UNL1        0.0232
@<TRIPOS>BOND
     1     1     2    1
     2     1     3    1
     3     2     3    1
     4     2     4    1
     5     2     5    1
     6     3     6    1
     7     3    17    1
     8     4     7    1
     9     4     8    1
    10     4    18    1
    11     5     9    1
    12     5    13    1
    13     5    19    1
    14     6    10    1
    15     6    12    1
    16     6    20    1
    17     7     9    1
    18     7    21    1
    19     7    22    1
    20     8    11    1
    21     8    14    1
    22     8    23    1
    23     9    24    1
    24     9    25    1
    25    10    11    1
    26    10    26    1
    27    10    27    1
    28    11    28    1
    29    11    29    1
    30    12    15    1
    31    12    16    1
    32    12    30    1
    33    13    31    1
    34    13    32    1
    35    13    33    1
    36    14    34    1
    37    14    35    1
    38    14    36    1
    39    15    37    1
    40    15    38    1
    41    15    39    1
    42    16    40    1
    43    16    41    1
    44    16    42    1
