@<TRIPOS>MOLECULE
IMPHY003149
 47 49 0 0 0
SMALL
GASTEIGER

@<TRIPOS>ATOM
      1 S           8.1234    2.1686    0.0000 S.3     1  UNL1        0.0000
      2 NA          8.1033    3.9005    0.0000 Na      2  UNL2        0.0000
      3 O           6.3981   -2.8659    0.0000 O.2     1  UNL1        0.0000
      4 O           8.1465   -3.9005    0.0000 O.2     1  UNL1        0.0000
      5 O           9.9282   -2.8900    0.0000 O.2     1  UNL1        0.0000
      6 O           8.6133    3.0403    0.0000 O.co2   1  UNL1       -1.0000
      7 O           7.2516    2.6585    0.0000 O.2     1  UNL1        0.0000
      8 O           7.6334    1.2968    0.0000 O.2     1  UNL1        0.0000
      9 N           6.3981   -0.8659    0.0000 N.ar    1  UNL1        0.0000
     10 N           8.1465    0.1687    0.0000 N.pl3   1  UNL1        0.0000
     11 N           2.8680   -2.8900    0.0000 N.pl3   1  UNL1        0.0000
     12 C           7.2641   -1.3659    0.0000 C.ar    1  UNL1        0.0000
     13 C           5.5320   -1.3659    0.0000 C.ar    1  UNL1        0.0000
     14 C           8.1580   -0.8312    0.0000 C.ar    1  UNL1        0.0000
     15 C           7.2641   -2.3659    0.0000 C.ar    1  UNL1        0.0000
     16 C           5.5320   -2.3659    0.0000 C.ar    1  UNL1        0.0000
     17 C           3.7320   -2.3867    0.0000 C.ar    1  UNL1        0.0000
     18 C           4.6381   -2.9006    0.0000 C.ar    1  UNL1        0.0000
     19 C           4.6381   -0.8312    0.0000 C.ar    1  UNL1        0.0000
     20 C           9.0641   -1.3451    0.0000 C.ar    1  UNL1        0.0000
     21 C           9.0067    0.6787    0.0000 C.ar    1  UNL1        0.0000
     22 C           8.1580   -2.9006    0.0000 C.ar    1  UNL1        0.0000
     23 C           3.7320   -1.3451    0.0000 C.ar    1  UNL1        0.0000
     24 C           9.0641   -2.3867    0.0000 C.ar    1  UNL1        0.0000
     25 C           8.9951    1.6786    0.0000 C.ar    1  UNL1        0.0000
     26 C           9.8784    0.1887    0.0000 C.ar    1  UNL1        0.0000
     27 C           9.8553    2.1886    0.0000 C.ar    1  UNL1        0.0000
     28 C           2.0000   -2.3934    0.0000 C.3     1  UNL1        0.0000
     29 C           2.8718   -3.8900    0.0000 C.3     1  UNL1        0.0000
     30 C          10.7386    0.6987    0.0000 C.ar    1  UNL1        0.0000
     31 C          10.7270    1.6986    0.0000 C.ar    1  UNL1        0.0000
     32 H           6.3981   -0.2459    0.0000 H       1  UNL1        0.0000
     33 H           4.6453   -3.5205    0.0000 H       1  UNL1        0.0000
     34 H           7.6060    0.4725    0.0000 H       1  UNL1        0.0000
     35 H           4.6453   -0.2113    0.0000 H       1  UNL1        0.0000
     36 H           9.5998   -1.0330    0.0000 H       1  UNL1        0.0000
     37 H           3.1963   -1.0330    0.0000 H       1  UNL1        0.0000
     38 H           9.8856   -0.4312    0.0000 H       1  UNL1        0.0000
     39 H           9.8481    2.8086    0.0000 H       1  UNL1        0.0000
     40 H           2.3079   -1.8553    0.0000 H       1  UNL1        0.0000
     41 H           1.4619   -2.0855    0.0000 H       1  UNL1        0.0000
     42 H           2.2518   -3.8924    0.0000 H       1  UNL1        0.0000
     43 H           2.8742   -4.5100    0.0000 H       1  UNL1        0.0000
     44 H           3.4918   -3.8876    0.0000 H       1  UNL1        0.0000
     45 H           1.6921   -2.9315    0.0000 H       1  UNL1        0.0000
     46 H          11.2791    0.3949    0.0000 H       1  UNL1        0.0000
     47 H          11.2603    2.0148    0.0000 H       1  UNL1        0.0000
@<TRIPOS>UNITY_ATOM_ATTR
2 1
charge 1
6 1
charge -1
@<TRIPOS>BOND
     1     1     6    1
     2     1     7    2
     3     1     8    2
     4     1    25    1
     5     3    15   ar
     6     3    16   ar
     7     4    22    2
     8     5    24    2
     9     9    12   ar
    10     9    13   ar
    11     9    32    1
    12    10    14    1
    13    10    21    1
    14    10    34    1
    15    11    17    1
    16    11    28    1
    17    11    29    1
    18    12    14   ar
    19    12    15    2
    20    13    16   ar
    21    13    19   ar
    22    14    20   ar
    23    15    22   ar
    24    16    18   ar
    25    17    18   ar
    26    17    23   ar
    27    18    33    1
    28    19    23   ar
    29    19    35    1
    30    20    24   ar
    31    20    36    1
    32    21    25   ar
    33    21    26   ar
    34    22    24   ar
    35    23    37    1
    36    25    27   ar
    37    26    30   ar
    38    26    38    1
    39    27    31   ar
    40    27    39    1
    41    28    40    1
    42    28    41    1
    43    28    45    1
    44    29    42    1
    45    29    43    1
    46    29    44    1
    47    30    31   ar
    48    30    46    1
    49    31    47    1
