@<TRIPOS>MOLECULE
IMPHY012815
 46 45 0 0 0
SMALL
GASTEIGER

@<TRIPOS>ATOM
      1 O           2.5369   -0.8660    0.0000 O.3     1  UNL1       -0.3848
      2 C           3.4030   -0.3660    0.0000 C.3     1  UNL1        0.0814
      3 C           4.2690    0.1340    0.0000 C.3     1  UNL1       -0.0172
      4 C           5.1350   -0.3660    0.0000 C.3     1  UNL1       -0.0316
      5 C           7.7331    0.1340    0.0000 C.3     1  UNL1       -0.0317
      6 C           6.8671   -0.3660    0.0000 C.2     1  UNL1       -0.0765
      7 C           6.0010    0.1340    0.0000 C.2     1  UNL1       -0.0849
      8 C           8.5991   -0.3660    0.0000 C.3     1  UNL1       -0.0459
      9 C           3.9030   -1.2320    0.0000 C.3     1  UNL1       -0.0324
     10 C           2.9030    0.5000    0.0000 C.2     1  UNL1       -0.0602
     11 C           9.4651    0.1340    0.0000 C.3     1  UNL1       -0.0342
     12 C           6.8671   -1.3660    0.0000 C.3     1  UNL1       -0.0438
     13 C          10.3312   -0.3660    0.0000 C.2     1  UNL1       -0.0838
     14 C           3.4030    1.3660    0.0000 C.2     1  UNL1       -0.1000
     15 C          11.1972    0.1340    0.0000 C.2     1  UNL1       -0.0633
     16 C          12.0632   -0.3660    0.0000 C.2     1  UNL1       -0.0578
     17 C          12.9292    0.1340    0.0000 C.3     1  UNL1       -0.0403
     18 C          12.0632   -1.3660    0.0000 C.2     1  UNL1       -0.0958
     19 H           4.6675    0.6089    0.0000 H       1  UNL1        0.0299
     20 H           3.8705    0.6089    0.0000 H       1  UNL1        0.0299
     21 H           4.7365   -0.8410    0.0000 H       1  UNL1        0.0308
     22 H           5.5335   -0.8410    0.0000 H       1  UNL1        0.0308
     23 H           8.1316    0.6089    0.0000 H       1  UNL1        0.0310
     24 H           7.3346    0.6089    0.0000 H       1  UNL1        0.0310
     25 H           6.0010    0.7540    0.0000 H       1  UNL1        0.0572
     26 H           8.2006   -0.8410    0.0000 H       1  UNL1        0.0271
     27 H           8.9976   -0.8410    0.0000 H       1  UNL1        0.0271
     28 H           3.3660   -1.5420    0.0000 H       1  UNL1        0.0260
     29 H           4.2130   -1.7690    0.0000 H       1  UNL1        0.0260
     30 H           4.4399   -0.9221    0.0000 H       1  UNL1        0.0260
     31 H           2.2830    0.5000    0.0000 H       1  UNL1        0.0594
     32 H           9.8637    0.6089    0.0000 H       1  UNL1        0.0308
     33 H           9.0666    0.6089    0.0000 H       1  UNL1        0.0308
     34 H           6.2471   -1.3660    0.0000 H       1  UNL1        0.0274
     35 H           6.8671   -1.9860    0.0000 H       1  UNL1        0.0274
     36 H           7.4871   -1.3660    0.0000 H       1  UNL1        0.0274
     37 H           2.0000   -0.5560    0.0000 H       1  UNL1        0.2106
     38 H          10.3312   -0.9860    0.0000 H       1  UNL1        0.0572
     39 H           4.0230    1.3660    0.0000 H       1  UNL1        0.0533
     40 H           3.0930    1.9030    0.0000 H       1  UNL1        0.0533
     41 H          11.1972    0.7540    0.0000 H       1  UNL1        0.0617
     42 H          13.2392   -0.4030    0.0000 H       1  UNL1        0.0277
     43 H          13.4662    0.4440    0.0000 H       1  UNL1        0.0277
     44 H          12.6192    0.6709    0.0000 H       1  UNL1        0.0277
     45 H          11.5263   -1.6760    0.0000 H       1  UNL1        0.0537
     46 H          12.6002   -1.6760    0.0000 H       1  UNL1        0.0537
@<TRIPOS>BOND
     1     1     2    1
     2     1    37    1
     3     2     3    1
     4     2     9    1
     5     2    10    1
     6     3     4    1
     7     3    19    1
     8     3    20    1
     9     4     7    1
    10     4    21    1
    11     4    22    1
    12     5     6    1
    13     5     8    1
    14     5    23    1
    15     5    24    1
    16     6     7    2
    17     6    12    1
    18     7    25    1
    19     8    11    1
    20     8    26    1
    21     8    27    1
    22     9    28    1
    23     9    29    1
    24     9    30    1
    25    10    14    2
    26    10    31    1
    27    11    13    1
    28    11    32    1
    29    11    33    1
    30    12    34    1
    31    12    35    1
    32    12    36    1
    33    13    15    2
    34    13    38    1
    35    14    39    1
    36    14    40    1
    37    15    16    1
    38    15    41    1
    39    16    17    1
    40    16    18    2
    41    17    42    1
    42    17    43    1
    43    17    44    1
    44    18    45    1
    45    18    46    1
