@<TRIPOS>MOLECULE
IMPHY001713
 72 76 0 0 0
SMALL
GASTEIGER

@<TRIPOS>ATOM
      1 O           6.0682   -2.9898    0.0000 O.3     1  UNL1       -0.4478
      2 O           7.8167   -4.0244    0.0000 O.3     1  UNL1       -0.5009
      3 O           9.5984   -3.0140    0.0000 O.3     1  UNL1       -0.4913
      4 O           4.3198   -4.0244    0.0000 O.3     1  UNL1       -0.4884
      5 O           2.5381   -0.9657    0.0000 O.3     1  UNL1       -0.5032
      6 O           2.5381   -3.0140    0.0000 O.3     1  UNL1       -0.5008
      7 O           4.3362    3.0102    0.0000 O.3     1  UNL1       -0.4951
      8 O           6.9102    3.5345    0.0000 O.3     1  UNL1       -0.4951
      9 C           6.0682   -0.9899    0.0000 C.3     1  UNL1        0.0208
     10 C           6.9343   -1.4898    0.0000 C.ar    1  UNL1        0.0098
     11 C           5.2022   -1.4898    0.0000 C.ar    1  UNL1        0.0101
     12 C           6.0682    0.0101    0.0000 C.3     1  UNL1       -0.0165
     13 C           7.8282   -0.9552    0.0000 C.ar    1  UNL1       -0.0361
     14 C           6.9343   -2.4898    0.0000 C.ar    1  UNL1        0.1775
     15 C           5.2022   -2.4898    0.0000 C.ar    1  UNL1        0.1777
     16 C           7.8167    0.0447    0.0000 C.3     1  UNL1       -0.0232
     17 C           5.2022    0.5101    0.0000 C.ar    1  UNL1       -0.0430
     18 C           8.7343   -1.4690    0.0000 C.ar    1  UNL1       -0.0126
     19 C           4.3083   -0.9552    0.0000 C.ar    1  UNL1       -0.0090
     20 C           7.8282   -3.0245    0.0000 C.ar    1  UNL1        0.2020
     21 C           8.6768    0.5547    0.0000 C.3     1  UNL1       -0.0236
     22 C           8.7343   -2.5107    0.0000 C.ar    1  UNL1        0.1653
     23 C           4.3083   -3.0245    0.0000 C.ar    1  UNL1        0.2080
     24 C           3.4022   -1.4690    0.0000 C.ar    1  UNL1        0.1625
     25 C           3.4022   -2.5107    0.0000 C.ar    1  UNL1        0.2046
     26 C           5.2022    1.5102    0.0000 C.ar    1  UNL1       -0.0167
     27 C           4.3362    0.0101    0.0000 C.ar    1  UNL1       -0.0583
     28 C           8.6653    1.5547    0.0000 C.ar    1  UNL1       -0.0436
     29 C           4.3362    2.0102    0.0000 C.ar    1  UNL1        0.1204
     30 C           3.4702    0.5101    0.0000 C.ar    1  UNL1       -0.0580
     31 C           3.4702    1.5102    0.0000 C.ar    1  UNL1       -0.0199
     32 C           7.7935    2.0446    0.0000 C.ar    1  UNL1       -0.0168
     33 C           9.5255    2.0646    0.0000 C.ar    1  UNL1       -0.0583
     34 C          10.4663   -2.5173    0.0000 C.3     1  UNL1        0.0790
     35 C           3.4597   -4.5344    0.0000 C.3     1  UNL1        0.0791
     36 C           7.7820    3.0445    0.0000 C.ar    1  UNL1        0.1204
     37 C           9.5139    3.0646    0.0000 C.ar    1  UNL1       -0.0580
     38 C           8.6422    3.5545    0.0000 C.ar    1  UNL1       -0.0199
     39 C           3.4702    3.5102    0.0000 C.3     1  UNL1        0.0788
     40 C           6.8986    4.5344    0.0000 C.3     1  UNL1        0.0788
     41 H           6.6052   -0.6799    0.0000 H       1  UNL1        0.0403
     42 H           6.6788   -0.0975    0.0000 H       1  UNL1        0.0322
     43 H           6.2803    0.5928    0.0000 H       1  UNL1        0.0322
     44 H           7.5979    0.6249    0.0000 H       1  UNL1        0.0316
     45 H           7.2074   -0.0700    0.0000 H       1  UNL1        0.0316
     46 H           9.2700   -1.1570    0.0000 H       1  UNL1        0.0658
     47 H           4.3154   -0.3352    0.0000 H       1  UNL1        0.0659
     48 H           8.8956   -0.0254    0.0000 H       1  UNL1        0.0316
     49 H           9.2861    0.6694    0.0000 H       1  UNL1        0.0316
     50 H           5.7392    1.8202    0.0000 H       1  UNL1        0.0657
     51 H           4.3362   -0.6099    0.0000 H       1  UNL1        0.0620
     52 H           8.3500   -4.3406    0.0000 H       1  UNL1        0.2924
     53 H           2.9332    0.2001    0.0000 H       1  UNL1        0.0619
     54 H           2.9332    1.8202    0.0000 H       1  UNL1        0.0654
     55 H           7.2602    1.7284    0.0000 H       1  UNL1        0.0657
     56 H          10.0659    1.7609    0.0000 H       1  UNL1        0.0620
     57 H           2.0000   -1.2736    0.0000 H       1  UNL1        0.2923
     58 H           2.0000   -2.7061    0.0000 H       1  UNL1        0.2924
     59 H          10.7743   -3.0555    0.0000 H       1  UNL1        0.0660
     60 H          11.0045   -2.2094    0.0000 H       1  UNL1        0.0660
     61 H          10.1584   -1.9792    0.0000 H       1  UNL1        0.0660
     62 H           3.1435   -4.0011    0.0000 H       1  UNL1        0.0660
     63 H           2.9263   -4.8506    0.0000 H       1  UNL1        0.0660
     64 H           3.7758   -5.0677    0.0000 H       1  UNL1        0.0660
     65 H          10.0472    3.3808    0.0000 H       1  UNL1        0.0619
     66 H           8.6350    4.1745    0.0000 H       1  UNL1        0.0654
     67 H           3.7802    4.0471    0.0000 H       1  UNL1        0.0660
     68 H           2.9332    3.8202    0.0000 H       1  UNL1        0.0660
     69 H           3.1602    2.9732    0.0000 H       1  UNL1        0.0660
     70 H           7.5186    4.5416    0.0000 H       1  UNL1        0.0660
     71 H           6.8915    5.1544    0.0000 H       1  UNL1        0.0660
     72 H           6.2787    4.5273    0.0000 H       1  UNL1        0.0660
@<TRIPOS>BOND
     1     1    14    1
     2     1    15    1
     3     2    20    1
     4     2    52    1
     5     3    22    1
     6     3    34    1
     7     4    23    1
     8     4    35    1
     9     5    24    1
    10     5    57    1
    11     6    25    1
    12     6    58    1
    13     7    29    1
    14     7    39    1
    15     8    36    1
    16     8    40    1
    17     9    10    1
    18     9    11    1
    19     9    12    1
    20     9    41    1
    21    10    13   ar
    22    10    14   ar
    23    11    15   ar
    24    11    19   ar
    25    12    17    1
    26    12    42    1
    27    12    43    1
    28    13    16    1
    29    13    18   ar
    30    14    20   ar
    31    15    23   ar
    32    16    21    1
    33    16    44    1
    34    16    45    1
    35    17    26   ar
    36    17    27   ar
    37    18    22   ar
    38    18    46    1
    39    19    24   ar
    40    19    47    1
    41    20    22   ar
    42    21    28    1
    43    21    48    1
    44    21    49    1
    45    23    25   ar
    46    24    25   ar
    47    26    29   ar
    48    26    50    1
    49    27    30   ar
    50    27    51    1
    51    28    32   ar
    52    28    33   ar
    53    29    31   ar
    54    30    31   ar
    55    30    53    1
    56    31    54    1
    57    32    36   ar
    58    32    55    1
    59    33    37   ar
    60    33    56    1
    61    34    59    1
    62    34    60    1
    63    34    61    1
    64    35    62    1
    65    35    63    1
    66    35    64    1
    67    36    38   ar
    68    37    38   ar
    69    37    65    1
    70    38    66    1
    71    39    67    1
    72    39    68    1
    73    39    69    1
    74    40    70    1
    75    40    71    1
    76    40    72    1
