@<TRIPOS>MOLECULE
IMPHY009464
 31 34 0 0 0
SMALL
GASTEIGER

@<TRIPOS>ATOM
      1 O           4.3798    0.0669    0.0000 O.2     1  UNL1       -0.4538
      2 O           2.5836   -2.7794    0.0000 O.2     1  UNL1       -0.4627
      3 O           6.1279   -2.9746    0.0000 O.3     1  UNL1       -0.5058
      4 O           7.0321   -1.4777    0.0000 O.2     1  UNL1       -0.2869
      5 C           4.3958   -0.9746    0.0000 C.ar    1  UNL1        0.1535
      6 C           3.5298   -1.4746    0.0000 C.ar    1  UNL1        0.0633
      7 C           5.2619   -1.4746    0.0000 C.ar    1  UNL1        0.1061
      8 C           3.5298   -2.4746    0.0000 C.ar    1  UNL1        0.1418
      9 C           5.2619   -2.4746    0.0000 C.ar    1  UNL1        0.1347
     10 C           5.2778    0.5946    0.0000 C.ar    1  UNL1        0.1393
     11 C           4.3958   -2.9746    0.0000 C.ar    1  UNL1        0.0237
     12 C           6.1719   -0.9678    0.0000 C.ar    1  UNL1        0.1966
     13 C           2.5836   -1.1699    0.0000 C.ar    1  UNL1       -0.0126
     14 C           6.1799    0.0738    0.0000 C.ar    1  UNL1        0.0288
     15 C           5.2740    1.5946    0.0000 C.ar    1  UNL1        0.0174
     16 C           2.0000   -1.9746    0.0000 C.ar    1  UNL1        0.0933
     17 C           6.1381    2.0980    0.0000 C.ar    1  UNL1       -0.0511
     18 C           4.4060    2.0913    0.0000 C.ar    1  UNL1       -0.0511
     19 C           6.1342    3.0980    0.0000 C.ar    1  UNL1       -0.0611
     20 C           4.4022    3.0913    0.0000 C.ar    1  UNL1       -0.0611
     21 C           5.2663    3.5946    0.0000 C.ar    1  UNL1       -0.0617
     22 H           4.3958   -3.5946    0.0000 H       1  UNL1        0.0691
     23 H           2.3910   -0.5806    0.0000 H       1  UNL1        0.0656
     24 H           6.7180    0.3818    0.0000 H       1  UNL1        0.0693
     25 H           1.3800   -1.9746    0.0000 H       1  UNL1        0.1030
     26 H           6.6762    1.7900    0.0000 H       1  UNL1        0.0625
     27 H           3.8703    1.7792    0.0000 H       1  UNL1        0.0625
     28 H           6.1279   -3.5946    0.0000 H       1  UNL1        0.2922
     29 H           6.6700    3.4100    0.0000 H       1  UNL1        0.0618
     30 H           3.8640    3.3992    0.0000 H       1  UNL1        0.0618
     31 H           5.2639    4.2146    0.0000 H       1  UNL1        0.0618
@<TRIPOS>BOND
     1     1     5   ar
     2     1    10   ar
     3     2     8   ar
     4     2    16   ar
     5     3     9    1
     6     3    28    1
     7     4    12    2
     8     5     6   ar
     9     5     7   ar
    10     6     8   ar
    11     6    13   ar
    12     7     9   ar
    13     7    12   ar
    14     8    11   ar
    15     9    11   ar
    16    10    14   ar
    17    10    15    1
    18    11    22    1
    19    12    14   ar
    20    13    16   ar
    21    13    23    1
    22    14    24    1
    23    15    17   ar
    24    15    18   ar
    25    16    25    1
    26    17    19   ar
    27    17    26    1
    28    18    20   ar
    29    18    27    1
    30    19    21   ar
    31    19    29    1
    32    20    21   ar
    33    20    30    1
    34    21    31    1
