@<TRIPOS>MOLECULE
IMPHY013910
 35 37 0 0 0
SMALL
GASTEIGER

@<TRIPOS>ATOM
      1 O           5.9213    1.6018    0.0000 O.2     1  UNL1       -0.4507
      2 O           6.7863   -1.6692    0.0000 O.3     1  UNL1       -0.4906
      3 O           8.0438    2.2008    0.0000 O.3     1  UNL1       -0.4884
      4 O           9.4260    0.6893    0.0000 O.3     1  UNL1       -0.4883
      5 O           8.7931   -1.2588    0.0000 O.3     1  UNL1       -0.5008
      6 O           2.4166    0.6893    0.0000 O.3     1  UNL1       -0.5066
      7 C           6.4213    0.0630    0.0000 C.ar    1  UNL1        0.0770
      8 C           5.4213    0.0630    0.0000 C.ar    1  UNL1        0.0319
      9 C           6.7304    1.0140    0.0000 C.ar    1  UNL1        0.1851
     10 C           5.1123    1.0140    0.0000 C.ar    1  UNL1        0.1400
     11 C           7.1063   -0.7218    0.0000 C.ar    1  UNL1        0.1766
     12 C           7.7458    1.2463    0.0000 C.ar    1  UNL1        0.2087
     13 C           8.4487    0.4776    0.0000 C.ar    1  UNL1        0.2108
     14 C           8.1268   -0.5131    0.0000 C.ar    1  UNL1        0.2056
     15 C           4.7364   -0.7218    0.0000 C.ar    1  UNL1       -0.0468
     16 C           4.0969    1.2463    0.0000 C.ar    1  UNL1        0.0228
     17 C           3.7158   -0.5131    0.0000 C.ar    1  UNL1       -0.0194
     18 C           3.3940    0.4776    0.0000 C.ar    1  UNL1        0.1204
     19 C           7.4468   -2.4200    0.0000 C.3     1  UNL1        0.0790
     20 C           9.0194    2.4200    0.0000 C.3     1  UNL1        0.0791
     21 C          10.0980   -0.0513    0.0000 C.3     1  UNL1        0.0791
     22 H           4.9348   -1.3092    0.0000 H       1  UNL1        0.0626
     23 H           3.9122    1.8381    0.0000 H       1  UNL1        0.0691
     24 H           3.3028   -0.9754    0.0000 H       1  UNL1        0.0654
     25 H           9.4000   -1.1322    0.0000 H       1  UNL1        0.2924
     26 H           6.9813   -2.8295    0.0000 H       1  UNL1        0.0660
     27 H           7.8563   -2.8856    0.0000 H       1  UNL1        0.0660
     28 H           7.9123   -2.0105    0.0000 H       1  UNL1        0.0660
     29 H           9.1553    1.8151    0.0000 H       1  UNL1        0.0660
     30 H           9.6244    2.5559    0.0000 H       1  UNL1        0.0660
     31 H           8.8835    3.0250    0.0000 H       1  UNL1        0.0660
     32 H           9.6389   -0.4679    0.0000 H       1  UNL1        0.0660
     33 H          10.5147   -0.5105    0.0000 H       1  UNL1        0.0660
     34 H          10.5572    0.3653    0.0000 H       1  UNL1        0.0660
     35 H           2.0000    0.2301    0.0000 H       1  UNL1        0.2921
@<TRIPOS>BOND
     1     1     9   ar
     2     1    10   ar
     3     2    11    1
     4     2    19    1
     5     3    12    1
     6     3    20    1
     7     4    13    1
     8     4    21    1
     9     5    14    1
    10     5    25    1
    11     6    18    1
    12     6    35    1
    13     7     8   ar
    14     7     9   ar
    15     7    11   ar
    16     8    10   ar
    17     8    15   ar
    18     9    12   ar
    19    10    16   ar
    20    11    14   ar
    21    12    13   ar
    22    13    14   ar
    23    15    17   ar
    24    15    22    1
    25    16    18   ar
    26    16    23    1
    27    17    18   ar
    28    17    24    1
    29    19    26    1
    30    19    27    1
    31    19    28    1
    32    20    29    1
    33    20    30    1
    34    20    31    1
    35    21    32    1
    36    21    33    1
    37    21    34    1
