@<TRIPOS>MOLECULE
IMPHY010045
 31 33 0 0 0
SMALL
GASTEIGER

@<TRIPOS>ATOM
      1 O           5.5301   -1.7602    0.0000 O.2     1  UNL1       -0.4543
      2 O           3.7817    1.2744    0.0000 O.3     1  UNL1       -0.5059
      3 O           5.5301    1.2398    0.0000 O.2     1  UNL1       -0.2863
      4 O           9.0602   -1.7843    0.0000 O.3     1  UNL1       -0.5066
      5 O           8.1387    1.7844    0.0000 O.3     1  UNL1       -0.4771
      6 O           6.4068    1.7644    0.0000 O.2     1  UNL1       -0.2451
      7 C           4.6641   -0.2602    0.0000 C.ar    1  UNL1        0.1059
      8 C           6.3961   -0.2602    0.0000 C.ar    1  UNL1        0.0789
      9 C           4.6641   -1.2602    0.0000 C.ar    1  UNL1        0.1430
     10 C           6.3961   -1.2602    0.0000 C.ar    1  UNL1        0.1435
     11 C           5.5301    0.2398    0.0000 C.ar    1  UNL1        0.2045
     12 C           7.2901    0.2745    0.0000 C.ar    1  UNL1        0.0766
     13 C           3.7702    0.2745    0.0000 C.ar    1  UNL1        0.1315
     14 C           3.7702   -1.7949    0.0000 C.ar    1  UNL1       -0.0155
     15 C           2.8641   -1.2810    0.0000 C.ar    1  UNL1       -0.0435
     16 C           7.2901   -1.7949    0.0000 C.ar    1  UNL1        0.0229
     17 C           2.8641   -0.2394    0.0000 C.ar    1  UNL1       -0.0163
     18 C           8.1962   -0.2394    0.0000 C.ar    1  UNL1       -0.0053
     19 C           8.1962   -1.2810    0.0000 C.ar    1  UNL1        0.1212
     20 C           2.0000   -1.7843    0.0000 C.3     1  UNL1       -0.0395
     21 C           7.2785    1.2744    0.0000 C.2     1  UNL1        0.3377
     22 H           3.7773   -2.4148    0.0000 H       1  UNL1        0.0657
     23 H           7.2829   -2.4148    0.0000 H       1  UNL1        0.0691
     24 H           2.3284    0.0727    0.0000 H       1  UNL1        0.0657
     25 H           8.7319    0.0727    0.0000 H       1  UNL1        0.0662
     26 H           1.6879   -1.2486    0.0000 H       1  UNL1        0.0278
     27 H           1.4643   -2.0964    0.0000 H       1  UNL1        0.0278
     28 H           2.3121   -2.3201    0.0000 H       1  UNL1        0.0278
     29 H           3.2484    1.5906    0.0000 H       1  UNL1        0.2922
     30 H           9.0579   -2.4043    0.0000 H       1  UNL1        0.2921
     31 H           8.1316    2.4043    0.0000 H       1  UNL1        0.2954
@<TRIPOS>BOND
     1     1     9   ar
     2     1    10   ar
     3     2    13    1
     4     2    29    1
     5     3    11    2
     6     4    19    1
     7     4    30    1
     8     5    21    1
     9     5    31    1
    10     6    21    2
    11     7     9   ar
    12     7    11   ar
    13     7    13   ar
    14     8    10   ar
    15     8    11   ar
    16     8    12   ar
    17     9    14   ar
    18    10    16   ar
    19    12    18   ar
    20    12    21    1
    21    13    17   ar
    22    14    15   ar
    23    14    22    1
    24    15    17   ar
    25    15    20    1
    26    16    19   ar
    27    16    23    1
    28    17    24    1
    29    18    19   ar
    30    18    25    1
    31    20    26    1
    32    20    27    1
    33    20    28    1
