@<TRIPOS>MOLECULE
IMPHY015931
 39 40 0 0 0
SMALL
GASTEIGER

@<TRIPOS>ATOM
      1 C           5.4641   -0.7673    0.0000 C.3     1  UNL1       -0.0102
      2 C           5.4641    0.2327    0.0000 C.2     1  UNL1       -0.0607
      3 C           6.3580   -1.3020    0.0000 C.3     1  UNL1       -0.0436
      4 C           4.5981   -1.2673    0.0000 C.3     1  UNL1       -0.0402
      5 C           4.5981    0.7327    0.0000 C.3     1  UNL1       -0.0095
      6 C           7.2641   -0.7881    0.0000 C.3     1  UNL1       -0.0486
      7 C           3.7320   -0.7673    0.0000 C.3     1  UNL1       -0.0304
      8 C           6.3580    0.7674    0.0000 C.2     1  UNL1       -0.0726
      9 C           7.2641    0.2535    0.0000 C.3     1  UNL1       -0.0317
     10 C           5.4641   -1.7673    0.0000 C.3     1  UNL1       -0.0558
     11 C           3.7320    0.2327    0.0000 C.2     1  UNL1       -0.0668
     12 C           6.3465    1.7673    0.0000 C.3     1  UNL1       -0.0435
     13 C           2.8660    0.7327    0.0000 C.2     1  UNL1       -0.0762
     14 C           2.0000    0.2327    0.0000 C.3     1  UNL1       -0.0438
     15 C           2.8660    1.7327    0.0000 C.3     1  UNL1       -0.0438
     16 H           5.9534   -1.7718    0.0000 H       1  UNL1        0.0274
     17 H           6.7517   -1.7810    0.0000 H       1  UNL1        0.0274
     18 H           4.1996   -1.7422    0.0000 H       1  UNL1        0.0277
     19 H           4.9966   -1.7422    0.0000 H       1  UNL1        0.0277
     20 H           4.9966    1.2076    0.0000 H       1  UNL1        0.0355
     21 H           4.1996    1.2076    0.0000 H       1  UNL1        0.0355
     22 H           7.4732   -1.3718    0.0000 H       1  UNL1        0.0269
     23 H           7.8750   -0.6820    0.0000 H       1  UNL1        0.0269
     24 H           3.1215   -0.6596    0.0000 H       1  UNL1        0.0310
     25 H           3.5200   -1.3499    0.0000 H       1  UNL1        0.0310
     26 H           7.8750    0.1474    0.0000 H       1  UNL1        0.0310
     27 H           7.4732    0.8372    0.0000 H       1  UNL1        0.0310
     28 H           4.8441   -1.7673    0.0000 H       1  UNL1        0.0238
     29 H           5.4641   -2.3873    0.0000 H       1  UNL1        0.0238
     30 H           6.0841   -1.7673    0.0000 H       1  UNL1        0.0238
     31 H           6.9664    1.7745    0.0000 H       1  UNL1        0.0274
     32 H           6.3393    2.3873    0.0000 H       1  UNL1        0.0274
     33 H           5.7265    1.7601    0.0000 H       1  UNL1        0.0274
     34 H           1.6900    0.7696    0.0000 H       1  UNL1        0.0274
     35 H           1.4631   -0.0773    0.0000 H       1  UNL1        0.0274
     36 H           2.3100   -0.3042    0.0000 H       1  UNL1        0.0274
     37 H           3.4860    1.7327    0.0000 H       1  UNL1        0.0274
     38 H           2.8660    2.3527    0.0000 H       1  UNL1        0.0274
     39 H           2.2460    1.7327    0.0000 H       1  UNL1        0.0274
@<TRIPOS>BOND
     1     1     2    1
     2     1     3    1
     3     1     4    1
     4     1    10    1
     5     2     5    1
     6     2     8    2
     7     3     6    1
     8     3    16    1
     9     3    17    1
    10     4     7    1
    11     4    18    1
    12     4    19    1
    13     5    11    1
    14     5    20    1
    15     5    21    1
    16     6     9    1
    17     6    22    1
    18     6    23    1
    19     7    11    1
    20     7    24    1
    21     7    25    1
    22     8     9    1
    23     8    12    1
    24     9    26    1
    25     9    27    1
    26    10    28    1
    27    10    29    1
    28    10    30    1
    29    11    13    2
    30    12    31    1
    31    12    32    1
    32    12    33    1
    33    13    14    1
    34    13    15    1
    35    14    34    1
    36    14    35    1
    37    14    36    1
    38    15    37    1
    39    15    38    1
    40    15    39    1
