@<TRIPOS>MOLECULE
IMPHY004336
 41 43 0 0 0
SMALL
GASTEIGER

@<TRIPOS>ATOM
      1 O           6.3981   -0.6154    0.0000 O.2     1  UNL1       -0.4507
      2 O           8.1301    1.3846    0.0000 O.3     1  UNL1       -0.4883
      3 O           2.8680    1.4088    0.0000 O.3     1  UNL1       -0.4885
      4 O           2.8680   -0.6395    0.0000 O.3     1  UNL1       -0.4912
      5 O           4.6497    2.4192    0.0000 O.3     1  UNL1       -0.5027
      6 O           6.3981    2.3846    0.0000 O.2     1  UNL1       -0.2830
      7 O          10.7282   -2.1154    0.0000 O.3     1  UNL1       -0.5068
      8 C           5.5320    0.8846    0.0000 C.ar    1  UNL1        0.1128
      9 C           5.5320   -0.1154    0.0000 C.ar    1  UNL1        0.1468
     10 C           7.2641   -0.1154    0.0000 C.ar    1  UNL1        0.1808
     11 C           6.3981    1.3846    0.0000 C.ar    1  UNL1        0.2382
     12 C           4.6381    1.4193    0.0000 C.ar    1  UNL1        0.1769
     13 C           7.2641    0.8846    0.0000 C.ar    1  UNL1        0.2107
     14 C           4.6381   -0.6501    0.0000 C.ar    1  UNL1        0.0270
     15 C           3.7320    0.9054    0.0000 C.ar    1  UNL1        0.2043
     16 C           3.7320   -0.1362    0.0000 C.ar    1  UNL1        0.1687
     17 C           8.1301   -0.6154    0.0000 C.ar    1  UNL1        0.0213
     18 C           8.1301   -1.6154    0.0000 C.ar    1  UNL1       -0.0475
     19 C           8.9962   -0.1154    0.0000 C.ar    1  UNL1       -0.0475
     20 C           8.9962   -2.1154    0.0000 C.ar    1  UNL1       -0.0195
     21 C           9.8622   -0.6154    0.0000 C.ar    1  UNL1       -0.0195
     22 C           9.8622   -1.6154    0.0000 C.ar    1  UNL1        0.1169
     23 C           8.1301    2.3846    0.0000 C.3     1  UNL1        0.0791
     24 C           2.0000    0.9121    0.0000 C.3     1  UNL1        0.0791
     25 C           2.8718   -1.6395    0.0000 C.3     1  UNL1        0.0790
     26 H           4.6453   -1.2700    0.0000 H       1  UNL1        0.0692
     27 H           7.5932   -1.9254    0.0000 H       1  UNL1        0.0626
     28 H           8.9962    0.5046    0.0000 H       1  UNL1        0.0626
     29 H           8.9962   -2.7354    0.0000 H       1  UNL1        0.0654
     30 H          10.3991   -0.3054    0.0000 H       1  UNL1        0.0654
     31 H           4.1164    2.7354    0.0000 H       1  UNL1        0.2923
     32 H           8.7501    2.3846    0.0000 H       1  UNL1        0.0660
     33 H           8.1301    3.0046    0.0000 H       1  UNL1        0.0660
     34 H           7.5101    2.3846    0.0000 H       1  UNL1        0.0660
     35 H           1.6921    1.4502    0.0000 H       1  UNL1        0.0660
     36 H           1.4619    0.6042    0.0000 H       1  UNL1        0.0660
     37 H           2.3079    0.3740    0.0000 H       1  UNL1        0.0660
     38 H           2.2518   -1.6419    0.0000 H       1  UNL1        0.0660
     39 H           2.8742   -2.2595    0.0000 H       1  UNL1        0.0660
     40 H           3.4918   -1.6371    0.0000 H       1  UNL1        0.0660
     41 H          10.7282   -2.7354    0.0000 H       1  UNL1        0.2921
@<TRIPOS>BOND
     1     1     9   ar
     2     1    10   ar
     3     2    13    1
     4     2    23    1
     5     3    15    1
     6     3    24    1
     7     4    16    1
     8     4    25    1
     9     5    12    1
    10     5    31    1
    11     6    11    2
    12     7    22    1
    13     7    41    1
    14     8     9   ar
    15     8    11   ar
    16     8    12   ar
    17     9    14   ar
    18    10    13   ar
    19    10    17    1
    20    11    13   ar
    21    12    15   ar
    22    14    16   ar
    23    14    26    1
    24    15    16   ar
    25    17    18   ar
    26    17    19   ar
    27    18    20   ar
    28    18    27    1
    29    19    21   ar
    30    19    28    1
    31    20    22   ar
    32    20    29    1
    33    21    22   ar
    34    21    30    1
    35    23    32    1
    36    23    33    1
    37    23    34    1
    38    24    35    1
    39    24    36    1
    40    24    37    1
    41    25    38    1
    42    25    39    1
    43    25    40    1
