@<TRIPOS>MOLECULE
IMPHY007599
 41 43 0 0 0
SMALL
GASTEIGER

@<TRIPOS>ATOM
      1 C           4.0430   -0.7073    0.0000 C.3     1  UNL1       -0.0231
      2 C           3.1420   -0.2734    0.0000 C.3     1  UNL1       -0.0297
      3 C           2.9195    0.7015    0.0000 C.3     1  UNL1       -0.0285
      4 C           3.5430    1.4834    0.0000 C.3     1  UNL1       -0.0325
      5 C           4.1499    0.4695    0.0000 C.3     1  UNL1       -0.0433
      6 C           3.9070   -1.6920    0.0000 C.3     1  UNL1       -0.0379
      7 C           4.9440   -0.2734    0.0000 C.3     1  UNL1       -0.0466
      8 C           2.4569   -0.9937    0.0000 C.3     1  UNL1       -0.0489
      9 C           4.5430    1.4834    0.0000 C.3     1  UNL1       -0.0405
     10 C           2.9288   -1.8687    0.0000 C.3     1  UNL1       -0.0497
     11 C           5.1665    0.7015    0.0000 C.3     1  UNL1       -0.0497
     12 C           2.2616    1.4546    0.0000 C.3     1  UNL1       -0.0593
     13 C           2.0000    0.3085    0.0000 C.3     1  UNL1       -0.0593
     14 C           4.6286   -2.3843    0.0000 C.3     1  UNL1       -0.0619
     15 C           4.9769    2.3843    0.0000 C.3     1  UNL1       -0.0621
     16 H           2.3762    0.0954    0.0000 H       1  UNL1        0.0311
     17 H           3.3539    2.3120    0.0000 H       1  UNL1        0.0309
     18 H           4.7199    0.2257    0.0000 H       1  UNL1        0.0274
     19 H           4.5577    0.9365    0.0000 H       1  UNL1        0.0274
     20 H           3.7279   -2.2856    0.0000 H       1  UNL1        0.0304
     21 H           5.0820   -0.8779    0.0000 H       1  UNL1        0.0271
     22 H           5.5640   -0.2734    0.0000 H       1  UNL1        0.0271
     23 H           2.0551   -0.5216    0.0000 H       1  UNL1        0.0268
     24 H           1.9452   -1.3437    0.0000 H       1  UNL1        0.0268
     25 H           4.2132    2.0083    0.0000 H       1  UNL1        0.0301
     26 H           2.3551   -2.1040    0.0000 H       1  UNL1        0.0268
     27 H           3.1025   -2.4638    0.0000 H       1  UNL1        0.0268
     28 H           5.7251    0.4325    0.0000 H       1  UNL1        0.0268
     29 H           5.5531    1.1863    0.0000 H       1  UNL1        0.0268
     30 H           2.7285    1.8625    0.0000 H       1  UNL1        0.0235
     31 H           1.8537    1.9215    0.0000 H       1  UNL1        0.0235
     32 H           1.7947    1.0467    0.0000 H       1  UNL1        0.0235
     33 H           1.7563    0.8786    0.0000 H       1  UNL1        0.0235
     34 H           1.4299    0.0648    0.0000 H       1  UNL1        0.0235
     35 H           2.2437   -0.2616    0.0000 H       1  UNL1        0.0235
     36 H           4.1994   -2.8317    0.0000 H       1  UNL1        0.0233
     37 H           5.0760   -2.8136    0.0000 H       1  UNL1        0.0233
     38 H           5.0578   -1.9369    0.0000 H       1  UNL1        0.0233
     39 H           5.5355    2.1153    0.0000 H       1  UNL1        0.0233
     40 H           5.2459    2.9429    0.0000 H       1  UNL1        0.0233
     41 H           4.4183    2.6533    0.0000 H       1  UNL1        0.0233
@<TRIPOS>BOND
     1     1     2    1
     2     1     5    1
     3     1     6    1
     4     1     7    1
     5     2     3    1
     6     2     8    1
     7     2    16    1
     8     3     4    1
     9     3    12    1
    10     3    13    1
    11     4     5    1
    12     4     9    1
    13     4    17    1
    14     5    18    1
    15     5    19    1
    16     6    10    1
    17     6    14    1
    18     6    20    1
    19     7    11    1
    20     7    21    1
    21     7    22    1
    22     8    10    1
    23     8    23    1
    24     8    24    1
    25     9    11    1
    26     9    15    1
    27     9    25    1
    28    10    26    1
    29    10    27    1
    30    11    28    1
    31    11    29    1
    32    12    30    1
    33    12    31    1
    34    12    32    1
    35    13    33    1
    36    13    34    1
    37    13    35    1
    38    14    36    1
    39    14    37    1
    40    14    38    1
    41    15    39    1
    42    15    40    1
    43    15    41    1
