@<TRIPOS>MOLECULE
IMPHY005279
 33 33 0 0 0
SMALL
GASTEIGER

@<TRIPOS>ATOM
      1 O           4.7690    2.5880    0.0000 O.3     1  UNL1       -0.3863
      2 O           2.5369    1.7220    0.0000 O.3     1  UNL1       -0.3890
      3 O           4.2690   -2.2780    0.0000 O.3     1  UNL1       -0.3888
      4 C           4.2690   -0.2780    0.0000 C.3     1  UNL1       -0.0101
      5 C           4.2690    1.7220    0.0000 C.3     1  UNL1        0.0890
      6 C           3.4030    0.2220    0.0000 C.3     1  UNL1       -0.0187
      7 C           5.1350    0.2220    0.0000 C.3     1  UNL1       -0.0449
      8 C           3.4030    1.2220    0.0000 C.3     1  UNL1        0.0839
      9 C           5.1350    1.2220    0.0000 C.3     1  UNL1       -0.0215
     10 C           4.2690   -1.2780    0.0000 C.3     1  UNL1        0.0634
     11 C           3.7690    2.5880    0.0000 C.3     1  UNL1       -0.0336
     12 C           5.2690   -1.2780    0.0000 C.3     1  UNL1       -0.0361
     13 C           3.2690   -1.2780    0.0000 C.3     1  UNL1       -0.0361
     14 H           4.8059   -0.5880    0.0000 H       1  UNL1        0.0329
     15 H           2.7924    0.3296    0.0000 H       1  UNL1        0.0295
     16 H           3.1909   -0.3606    0.0000 H       1  UNL1        0.0295
     17 H           5.3471   -0.3606    0.0000 H       1  UNL1        0.0270
     18 H           5.7456    0.3296    0.0000 H       1  UNL1        0.0270
     19 H           3.4030    1.8420    0.0000 H       1  UNL1        0.0622
     20 H           5.7456    1.1143    0.0000 H       1  UNL1        0.0294
     21 H           5.3471    1.8046    0.0000 H       1  UNL1        0.0294
     22 H           4.3059    2.8980    0.0000 H       1  UNL1        0.0258
     23 H           3.4590    3.1250    0.0000 H       1  UNL1        0.0258
     24 H           3.2320    2.2780    0.0000 H       1  UNL1        0.0258
     25 H           5.2690   -1.8980    0.0000 H       1  UNL1        0.0257
     26 H           5.8890   -1.2780    0.0000 H       1  UNL1        0.0257
     27 H           5.2690   -0.6580    0.0000 H       1  UNL1        0.0257
     28 H           3.2690   -0.6580    0.0000 H       1  UNL1        0.0257
     29 H           2.6490   -1.2780    0.0000 H       1  UNL1        0.0257
     30 H           3.2690   -1.8980    0.0000 H       1  UNL1        0.0257
     31 H           5.3890    2.5880    0.0000 H       1  UNL1        0.2103
     32 H           2.0000    1.4120    0.0000 H       1  UNL1        0.2099
     33 H           4.8059   -2.5880    0.0000 H       1  UNL1        0.2101
@<TRIPOS>BOND
     1     1     5    1
     2     1    31    1
     3     2     8    1
     4     2    32    1
     5     3    10    1
     6     3    33    1
     7     4     6    1
     8     4     7    1
     9     4    10    1
    10     4    14    1
    11     5     8    1
    12     5     9    1
    13     5    11    1
    14     6     8    1
    15     6    15    1
    16     6    16    1
    17     7     9    1
    18     7    17    1
    19     7    18    1
    20     8    19    1
    21     9    20    1
    22     9    21    1
    23    10    12    1
    24    10    13    1
    25    11    22    1
    26    11    23    1
    27    11    24    1
    28    12    25    1
    29    12    26    1
    30    12    27    1
    31    13    28    1
    32    13    29    1
    33    13    30    1
