@<TRIPOS>MOLECULE
IMPHY003768
 42 43 0 0 0
SMALL
GASTEIGER

@<TRIPOS>ATOM
      1 O           7.1260    1.2426    0.0000 O.3     1  UNL1       -0.3886
      2 O           4.3828   -2.2606    0.0000 O.3     1  UNL1       -0.3881
      3 O           2.1861   -0.1732    0.0000 O.2     1  UNL1       -0.2923
      4 C           5.3792   -0.6572    0.0000 C.3     1  UNL1       -0.0062
      5 C           5.3742    0.3427    0.0000 C.3     1  UNL1       -0.0029
      6 C           6.3189    0.6522    0.0000 C.3     1  UNL1        0.0668
      7 C           6.3269   -0.9573    0.0000 C.3     1  UNL1       -0.0447
      8 C           4.6005   -1.2846    0.0000 C.3     1  UNL1        0.0734
      9 C           6.9065   -0.1496    0.0000 C.3     1  UNL1       -0.0236
     10 C           4.5893    0.9623    0.0000 C.3     1  UNL1       -0.0187
     11 C           3.6244   -1.0670    0.0000 C.3     1  UNL1        0.0390
     12 C           6.0068    1.6022    0.0000 C.3     1  UNL1       -0.0358
     13 C           3.6155    0.7350    0.0000 C.2     1  UNL1       -0.0058
     14 C           5.2278   -2.0633    0.0000 C.3     1  UNL1       -0.0354
     15 C           3.1861   -0.1682    0.0000 C.2     1  UNL1        0.1619
     16 C           2.9881    1.5137    0.0000 C.2     1  UNL1       -0.0692
     17 C           3.3488    2.4463    0.0000 C.3     1  UNL1       -0.0434
     18 C           2.0000    1.3597    0.0000 C.3     1  UNL1       -0.0434
     19 H           5.5362   -1.4926    0.0000 H       1  UNL1        0.0332
     20 H           5.5229    1.1796    0.0000 H       1  UNL1        0.0335
     21 H           6.0787   -1.5254    0.0000 H       1  UNL1        0.0270
     22 H           6.8658   -1.2638    0.0000 H       1  UNL1        0.0270
     23 H           7.3694   -0.5620    0.0000 H       1  UNL1        0.0293
     24 H           7.3653    0.2674    0.0000 H       1  UNL1        0.0293
     25 H           5.0721    1.3513    0.0000 H       1  UNL1        0.0318
     26 H           4.3175    1.5196    0.0000 H       1  UNL1        0.0318
     27 H           3.0207   -1.2079    0.0000 H       1  UNL1        0.0373
     28 H           3.6275   -1.6870    0.0000 H       1  UNL1        0.0373
     29 H           6.5958    1.7958    0.0000 H       1  UNL1        0.0257
     30 H           5.8133    2.1913    0.0000 H       1  UNL1        0.0257
     31 H           5.4177    1.4087    0.0000 H       1  UNL1        0.0257
     32 H           4.7450   -2.4523    0.0000 H       1  UNL1        0.0257
     33 H           5.6168   -2.5461    0.0000 H       1  UNL1        0.0257
     34 H           5.7106   -1.6744    0.0000 H       1  UNL1        0.0257
     35 H           7.6932    0.9923    0.0000 H       1  UNL1        0.2102
     36 H           3.7913   -2.4463    0.0000 H       1  UNL1        0.2102
     37 H           3.9270    2.2227    0.0000 H       1  UNL1        0.0274
     38 H           3.5724    3.0246    0.0000 H       1  UNL1        0.0274
     39 H           2.7705    2.6700    0.0000 H       1  UNL1        0.0274
     40 H           1.9045    1.9723    0.0000 H       1  UNL1        0.0274
     41 H           1.3874    1.2642    0.0000 H       1  UNL1        0.0274
     42 H           2.0955    0.7471    0.0000 H       1  UNL1        0.0274
@<TRIPOS>BOND
     1     6     1    1
     2     1    35    1
     3     8     2    1
     4     2    36    1
     5     3    15    2
     6     4     5    1
     7     4     7    1
     8     4     8    1
     9     4    19    1
    10     5     6    1
    11     5    10    1
    12     5    20    1
    13     6     9    1
    14     6    12    1
    15     7     9    1
    16     7    21    1
    17     7    22    1
    18     8    11    1
    19     8    14    1
    20     9    23    1
    21     9    24    1
    22    10    13    1
    23    10    25    1
    24    10    26    1
    25    11    15    1
    26    11    27    1
    27    11    28    1
    28    12    29    1
    29    12    30    1
    30    12    31    1
    31    13    15    1
    32    13    16    2
    33    14    32    1
    34    14    33    1
    35    14    34    1
    36    16    17    1
    37    16    18    1
    38    17    37    1
    39    17    38    1
    40    17    39    1
    41    18    40    1
    42    18    41    1
    43    18    42    1
