@<TRIPOS>MOLECULE
IMPHY011103
 44 46 0 0 0
SMALL
GASTEIGER

@<TRIPOS>ATOM
      1 O           5.4751   -0.9139    0.0000 O.3     1  UNL1       -0.4530
      2 O           4.6660    2.6739    0.0000 O.2     1  UNL1       -0.2923
      3 O           5.7538   -2.6739    0.0000 O.2     1  UNL1       -0.2508
      4 C           3.8000    0.1739    0.0000 C.3     1  UNL1        0.0220
      5 C           3.8000    1.1739    0.0000 C.3     1  UNL1        0.0360
      6 C           4.6660   -0.3261    0.0000 C.3     1  UNL1        0.1411
      7 C           2.9061    1.7086    0.0000 C.3     1  UNL1       -0.0244
      8 C           2.9061   -0.3607    0.0000 C.3     1  UNL1       -0.0430
      9 C           2.0000    1.1947    0.0000 C.3     1  UNL1       -0.0472
     10 C           2.0000    0.1531    0.0000 C.3     1  UNL1       -0.0519
     11 C           3.8570   -0.9139    0.0000 C.3     1  UNL1        0.0017
     12 C           3.3002   -0.6922    0.0000 C.3     1  UNL1       -0.0549
     13 C           5.5321    0.1739    0.0000 C.2     1  UNL1       -0.0258
     14 C           4.6660    1.6739    0.0000 C.2     1  UNL1        0.1604
     15 C           2.4161    2.5803    0.0000 C.3     1  UNL1       -0.0591
     16 C           3.4160    2.5688    0.0000 C.3     1  UNL1       -0.0591
     17 C           5.5321    1.1739    0.0000 C.2     1  UNL1       -0.0162
     18 C           4.1660   -1.8649    0.0000 C.3     1  UNL1        0.0489
     19 C           5.1660   -1.8649    0.0000 C.2     1  UNL1        0.3081
     20 C           6.3981   -0.3261    0.0000 C.3     1  UNL1       -0.0396
     21 H           3.8066    2.0239    0.0000 H       1  UNL1        0.0393
     22 H           2.5124   -0.8398    0.0000 H       1  UNL1        0.0272
     23 H           3.3107   -0.8305    0.0000 H       1  UNL1        0.0272
     24 H           1.7909    1.7784    0.0000 H       1  UNL1        0.0271
     25 H           1.3891    1.0886    0.0000 H       1  UNL1        0.0271
     26 H           1.3891    0.2592    0.0000 H       1  UNL1        0.0266
     27 H           1.7909   -0.4306    0.0000 H       1  UNL1        0.0266
     28 H           3.5470   -0.3769    0.0000 H       1  UNL1        0.0312
     29 H           3.2906   -1.1660    0.0000 H       1  UNL1        0.0312
     30 H           2.7632   -0.3823    0.0000 H       1  UNL1        0.0237
     31 H           2.9902   -1.2292    0.0000 H       1  UNL1        0.0237
     32 H           3.8371   -1.0021    0.0000 H       1  UNL1        0.0237
     33 H           2.9566    2.8841    0.0000 H       1  UNL1        0.0235
     34 H           2.1123    3.1208    0.0000 H       1  UNL1        0.0235
     35 H           1.8756    2.2766    0.0000 H       1  UNL1        0.0235
     36 H           3.9494    2.2526    0.0000 H       1  UNL1        0.0235
     37 H           3.7322    3.1021    0.0000 H       1  UNL1        0.0235
     38 H           2.8827    2.8850    0.0000 H       1  UNL1        0.0235
     39 H           6.0690    1.4839    0.0000 H       1  UNL1        0.0653
     40 H           3.5596   -1.9938    0.0000 H       1  UNL1        0.0379
     41 H           4.2308   -2.4815    0.0000 H       1  UNL1        0.0379
     42 H           6.0881   -0.8630    0.0000 H       1  UNL1        0.0276
     43 H           6.9350   -0.6361    0.0000 H       1  UNL1        0.0276
     44 H           6.7081    0.2109    0.0000 H       1  UNL1        0.0276
@<TRIPOS>BOND
     1     6     1    1
     2     1    19    1
     3     2    14    2
     4     3    19    2
     5     4     5    1
     6     4     6    1
     7     4     8    1
     8     4    12    1
     9     5     7    1
    10     5    14    1
    11     5    21    1
    12     6    11    1
    13     6    13    1
    14     7     9    1
    15     7    15    1
    16     7    16    1
    17     8    10    1
    18     8    22    1
    19     8    23    1
    20     9    10    1
    21     9    24    1
    22     9    25    1
    23    10    26    1
    24    10    27    1
    25    11    18    1
    26    11    28    1
    27    11    29    1
    28    12    30    1
    29    12    31    1
    30    12    32    1
    31    13    17    2
    32    13    20    1
    33    14    17    1
    34    15    33    1
    35    15    34    1
    36    15    35    1
    37    16    36    1
    38    16    37    1
    39    16    38    1
    40    17    39    1
    41    18    19    1
    42    18    40    1
    43    18    41    1
    44    20    42    1
    45    20    43    1
    46    20    44    1
