@<TRIPOS>MOLECULE
IMPHY001250
 28 30 0 0 0
SMALL
GASTEIGER

@<TRIPOS>ATOM
      1 O           2.5836    1.2701    0.0000 O.2     1  UNL1       -0.4623
      2 O           6.1279   -0.5346    0.0000 O.3     1  UNL1       -0.5053
      3 O           3.5298   -2.0346    0.0000 O.3     1  UNL1       -0.4644
      4 O           5.2619   -2.0346    0.0000 O.2     1  UNL1       -0.2448
      5 C           4.3958    1.4654    0.0000 C.ar    1  UNL1        0.0285
      6 C           3.5298   -0.0346    0.0000 C.ar    1  UNL1        0.0382
      7 C           3.5298    0.9654    0.0000 C.ar    1  UNL1        0.1435
      8 C           5.2619    0.9654    0.0000 C.ar    1  UNL1        0.0279
      9 C           4.3958   -0.5346    0.0000 C.ar    1  UNL1        0.1116
     10 C           5.2619   -0.0346    0.0000 C.ar    1  UNL1        0.1393
     11 C           2.5836   -0.3394    0.0000 C.ar    1  UNL1       -0.0152
     12 C           4.3798    2.5069    0.0000 C.ar    1  UNL1       -0.0504
     13 C           6.1719    1.4722    0.0000 C.ar    1  UNL1       -0.0504
     14 C           2.0000    0.4654    0.0000 C.ar    1  UNL1        0.0932
     15 C           5.2778    3.0346    0.0000 C.ar    1  UNL1       -0.0610
     16 C           6.1799    2.5138    0.0000 C.ar    1  UNL1       -0.0611
     17 C           4.3958   -1.5346    0.0000 C.2     1  UNL1        0.3432
     18 C           3.5298   -3.0346    0.0000 C.3     1  UNL1        0.0820
     19 H           2.3910   -0.9287    0.0000 H       1  UNL1        0.0655
     20 H           3.8393    2.8106    0.0000 H       1  UNL1        0.0625
     21 H           6.7052    1.1560    0.0000 H       1  UNL1        0.0625
     22 H           1.3800    0.4654    0.0000 H       1  UNL1        0.1030
     23 H           5.2754    3.6546    0.0000 H       1  UNL1        0.0618
     24 H           6.7180    2.8217    0.0000 H       1  UNL1        0.0618
     25 H           6.6648   -0.2246    0.0000 H       1  UNL1        0.2922
     26 H           2.9098   -3.0346    0.0000 H       1  UNL1        0.0661
     27 H           3.5298   -3.6546    0.0000 H       1  UNL1        0.0661
     28 H           4.1498   -3.0346    0.0000 H       1  UNL1        0.0661
@<TRIPOS>BOND
     1     1     7   ar
     2     1    14   ar
     3     2    10    1
     4     2    25    1
     5     3    17    1
     6     3    18    1
     7     4    17    2
     8     5     7   ar
     9     5     8   ar
    10     5    12   ar
    11     6     7   ar
    12     6     9   ar
    13     6    11   ar
    14     8    10   ar
    15     8    13   ar
    16     9    10   ar
    17     9    17    1
    18    11    14   ar
    19    11    19    1
    20    12    15   ar
    21    12    20    1
    22    13    16   ar
    23    13    21    1
    24    14    22    1
    25    15    16   ar
    26    15    23    1
    27    16    24    1
    28    18    26    1
    29    18    27    1
    30    18    28    1
