@<TRIPOS>MOLECULE
IMPHY017118
 40 41 0 0 0
SMALL
GASTEIGER

@<TRIPOS>ATOM
      1 O           7.2641   -0.2775    0.0000 O.3     1  UNL1       -0.3907
      2 C           3.7320   -0.2500    0.0000 C.3     1  UNL1       -0.0127
      3 C           2.8660   -0.7500    0.0000 C.3     1  UNL1       -0.0285
      4 C           3.7320    0.7500    0.0000 C.3     1  UNL1       -0.0133
      5 C           4.6260    1.2847    0.0000 C.3     1  UNL1       -0.0422
      6 C           2.0000   -0.2500    0.0000 C.3     1  UNL1       -0.0309
      7 C           2.8660   -1.7500    0.0000 C.3     1  UNL1       -0.0431
      8 C           2.8660    1.2500    0.0000 C.2     1  UNL1       -0.0729
      9 C           4.6260   -0.7847    0.0000 C.2     1  UNL1       -0.0787
     10 C           5.5321    0.7708    0.0000 C.3     1  UNL1       -0.0290
     11 C           2.0000    0.7500    0.0000 C.2     1  UNL1       -0.0845
     12 C           5.5321   -0.2708    0.0000 C.2     1  UNL1       -0.0481
     13 C           2.0000   -2.2500    0.0000 C.3     1  UNL1       -0.0624
     14 C           3.7320   -2.2500    0.0000 C.3     1  UNL1       -0.0624
     15 C           2.8660    2.2500    0.0000 C.3     1  UNL1       -0.0435
     16 C           6.3961   -0.7742    0.0000 C.3     1  UNL1        0.0653
     17 H           3.7273   -0.8700    0.0000 H       1  UNL1        0.0352
     18 H           2.3291   -1.0600    0.0000 H       1  UNL1        0.0312
     19 H           3.7273    1.3700    0.0000 H       1  UNL1        0.0351
     20 H           5.0196    1.7637    0.0000 H       1  UNL1        0.0274
     21 H           4.2214    1.7544    0.0000 H       1  UNL1        0.0274
     22 H           1.3894   -0.1423    0.0000 H       1  UNL1        0.0310
     23 H           1.7880   -0.8326    0.0000 H       1  UNL1        0.0310
     24 H           2.8660   -2.3700    0.0000 H       1  UNL1        0.0298
     25 H           4.6188   -1.4046    0.0000 H       1  UNL1        0.0575
     26 H           6.1429    0.6647    0.0000 H       1  UNL1        0.0311
     27 H           5.7411    1.3545    0.0000 H       1  UNL1        0.0311
     28 H           1.4631    1.0600    0.0000 H       1  UNL1        0.0572
     29 H           1.6900   -1.7131    0.0000 H       1  UNL1        0.0232
     30 H           1.4631   -2.5600    0.0000 H       1  UNL1        0.0232
     31 H           2.3100   -2.7869    0.0000 H       1  UNL1        0.0232
     32 H           3.4220   -2.7869    0.0000 H       1  UNL1        0.0232
     33 H           4.2690   -2.5600    0.0000 H       1  UNL1        0.0232
     34 H           4.0420   -1.7131    0.0000 H       1  UNL1        0.0232
     35 H           3.4860    2.2500    0.0000 H       1  UNL1        0.0274
     36 H           2.8660    2.8700    0.0000 H       1  UNL1        0.0274
     37 H           2.2460    2.2500    0.0000 H       1  UNL1        0.0274
     38 H           5.9958   -1.2476    0.0000 H       1  UNL1        0.0604
     39 H           6.7928   -1.2506    0.0000 H       1  UNL1        0.0604
     40 H           7.7998   -0.5896    0.0000 H       1  UNL1        0.2098
@<TRIPOS>BOND
     1     1    16    1
     2     1    40    1
     3     2     3    1
     4     2     4    1
     5     2     9    1
     6     2    17    1
     7     3     6    1
     8     3     7    1
     9     3    18    1
    10     4     5    1
    11     4     8    1
    12     4    19    1
    13     5    10    1
    14     5    20    1
    15     5    21    1
    16     6    11    1
    17     6    22    1
    18     6    23    1
    19     7    13    1
    20     7    14    1
    21     7    24    1
    22     8    11    2
    23     8    15    1
    24     9    12    2
    25     9    25    1
    26    10    12    1
    27    10    26    1
    28    10    27    1
    29    11    28    1
    30    12    16    1
    31    13    29    1
    32    13    30    1
    33    13    31    1
    34    14    32    1
    35    14    33    1
    36    14    34    1
    37    15    35    1
    38    15    36    1
    39    15    37    1
    40    16    38    1
    41    16    39    1
