@<TRIPOS>MOLECULE
IMPHY001651
 120 126 0 0 0
SMALL
GASTEIGER

@<TRIPOS>ATOM
      1 O           7.8620    4.6425    0.0000 O.3     1  UNL1       -0.3448
      2 O           5.4100    3.9791    0.0000 O.3     1  UNL1       -0.3944
      3 O           6.0010   -4.6160    0.0000 O.3     1  UNL1       -0.4318
      4 O           5.1350   -3.1160    0.0000 O.2     1  UNL1       -0.2501
      5 O           9.5940    4.6225    0.0000 O.3     1  UNL1       -0.3461
      6 O           4.2690   -4.6160    0.0000 O.3     1  UNL1       -0.3312
      7 O           7.8852    6.6424    0.0000 O.3     1  UNL1       -0.3841
      8 O           9.6286    7.6223    0.0000 O.3     1  UNL1       -0.3864
      9 O           6.0010   -6.6160    0.0000 O.3     1  UNL1       -0.3829
     10 O          11.3490    6.6023    0.0000 O.3     1  UNL1       -0.3869
     11 O           4.2690   -7.6160    0.0000 O.3     1  UNL1       -0.3864
     12 O           2.5369   -6.6160    0.0000 O.3     1  UNL1       -0.3865
     13 O           2.5369   -3.6160    0.0000 O.3     1  UNL1       -0.3924
     14 C           6.9067   -0.0470    0.0000 C.3     1  UNL1       -0.0194
     15 C           7.7765    0.4463    0.0000 C.3     1  UNL1       -0.0257
     16 C           7.8006    1.4877    0.0000 C.3     1  UNL1       -0.0249
     17 C           6.8990   -1.0470    0.0000 C.3     1  UNL1       -0.0051
     18 C           6.9067    2.0223    0.0000 C.3     1  UNL1       -0.0255
     19 C           6.0006    0.4669    0.0000 C.3     1  UNL1       -0.0463
     20 C           6.9067    3.1073    0.0000 C.3     1  UNL1        0.0206
     21 C           6.0006    1.5085    0.0000 C.3     1  UNL1       -0.0485
     22 C           7.7611   -1.5536    0.0000 C.2     1  UNL1       -0.0629
     23 C           7.7691   -2.5952    0.0000 C.3     1  UNL1       -0.0031
     24 C           8.6387   -0.0603    0.0000 C.3     1  UNL1       -0.0306
     25 C           8.7565    2.0009    0.0000 C.3     1  UNL1       -0.0447
     26 C           5.9851   -1.5468    0.0000 C.3     1  UNL1       -0.0424
     27 C           6.8671   -3.1160    0.0000 C.3     1  UNL1        0.0744
     28 C           5.9206   -0.2130    0.0000 C.3     1  UNL1       -0.0585
     29 C           7.8505    3.6426    0.0000 C.3     1  UNL1        0.0695
     30 C           5.9690   -2.5883    0.0000 C.3     1  UNL1       -0.0359
     31 C           8.6588    0.9744    0.0000 C.3     1  UNL1       -0.0590
     32 C           8.7816    3.0856    0.0000 C.3     1  UNL1       -0.0254
     33 C           8.6310   -1.0603    0.0000 C.2     1  UNL1       -0.0836
     34 C           5.9155   -0.8657    0.0000 C.3     1  UNL1       -0.0553
     35 C           8.7170   -3.1232    0.0000 C.3     1  UNL1       -0.0403
     36 C           6.8503   -4.2009    0.0000 C.3     1  UNL1       -0.0362
     37 C           8.7254   -4.2081    0.0000 C.3     1  UNL1       -0.0343
     38 C           6.4100    3.9753    0.0000 C.3     1  UNL1        0.0522
     39 C           5.9067    3.1112    0.0000 C.3     1  UNL1       -0.0548
     40 C           7.7858   -4.7506    0.0000 C.3     1  UNL1       -0.0468
     41 C           6.0010   -3.6160    0.0000 C.2     1  UNL1        0.3161
     42 C           9.7254   -4.2043    0.0000 C.3     1  UNL1       -0.0598
     43 C           9.2287   -5.0722    0.0000 C.3     1  UNL1       -0.0598
     44 C           8.7338    5.1325    0.0000 C.3     1  UNL1        0.1878
     45 C           8.7453    6.1324    0.0000 C.3     1  UNL1        0.1341
     46 C           5.1350   -5.1160    0.0000 C.3     1  UNL1        0.2337
     47 C           9.6171    6.6223    0.0000 C.3     1  UNL1        0.1137
     48 C          10.4657    5.1124    0.0000 C.3     1  UNL1        0.0792
     49 C           5.1350   -6.1160    0.0000 C.3     1  UNL1        0.1455
     50 C          10.4773    6.1124    0.0000 C.3     1  UNL1        0.1069
     51 C           4.2690   -6.6160    0.0000 C.3     1  UNL1        0.1152
     52 C           3.4030   -5.1160    0.0000 C.3     1  UNL1        0.1140
     53 C           3.4030   -6.1160    0.0000 C.3     1  UNL1        0.1120
     54 C           2.5369   -4.6160    0.0000 C.3     1  UNL1        0.0731
     55 H           8.5191    0.8599    0.0000 H       1  UNL1        0.0315
     56 H           6.1722    2.4502    0.0000 H       1  UNL1        0.0313
     57 H           5.3898    0.5729    0.0000 H       1  UNL1        0.0271
     58 H           5.7916   -0.1168    0.0000 H       1  UNL1        0.0271
     59 H           5.7916    2.0922    0.0000 H       1  UNL1        0.0268
     60 H           5.3898    1.4024    0.0000 H       1  UNL1        0.0268
     61 H           8.5003   -2.1617    0.0000 H       1  UNL1        0.0357
     62 H           9.2484   -0.1727    0.0000 H       1  UNL1        0.0310
     63 H           8.8552    0.5206    0.0000 H       1  UNL1        0.0310
     64 H           8.9520    1.4126    0.0000 H       1  UNL1        0.0271
     65 H           9.3697    2.0929    0.0000 H       1  UNL1        0.0271
     66 H           5.7850   -0.9599    0.0000 H       1  UNL1        0.0274
     67 H           5.3727   -1.6434    0.0000 H       1  UNL1        0.0274
     68 H           5.8176    0.3984    0.0000 H       1  UNL1        0.0235
     69 H           5.3092   -0.3159    0.0000 H       1  UNL1        0.0235
     70 H           6.0235   -0.8244    0.0000 H       1  UNL1        0.0235
     71 H           7.3165    3.9577    0.0000 H       1  UNL1        0.0603
     72 H           5.3599   -2.4728    0.0000 H       1  UNL1        0.0276
     73 H           5.7510   -3.1687    0.0000 H       1  UNL1        0.0276
     74 H           8.3406    0.4423    0.0000 H       1  UNL1        0.0235
     75 H           9.1909    0.6561    0.0000 H       1  UNL1        0.0235
     76 H           8.9771    1.5065    0.0000 H       1  UNL1        0.0235
     77 H           9.3899    2.9654    0.0000 H       1  UNL1        0.0290
     78 H           9.0041    3.6643    0.0000 H       1  UNL1        0.0290
     79 H           9.1655   -1.3744    0.0000 H       1  UNL1        0.0572
     80 H           6.0279   -0.2560    0.0000 H       1  UNL1        0.0238
     81 H           5.3058   -0.7534    0.0000 H       1  UNL1        0.0238
     82 H           5.8032   -1.4755    0.0000 H       1  UNL1        0.0238
     83 H           9.3287   -3.2245    0.0000 H       1  UNL1        0.0276
     84 H           8.9216   -2.5379    0.0000 H       1  UNL1        0.0276
     85 H           6.2412   -4.0854    0.0000 H       1  UNL1        0.0276
     86 H           6.6323   -4.7813    0.0000 H       1  UNL1        0.0276
     87 H           6.9934    4.1851    0.0000 H       1  UNL1        0.0563
     88 H           6.3047    4.5863    0.0000 H       1  UNL1        0.0563
     89 H           5.9091    3.7312    0.0000 H       1  UNL1        0.0237
     90 H           5.2867    3.1136    0.0000 H       1  UNL1        0.0237
     91 H           5.9043    2.4912    0.0000 H       1  UNL1        0.0237
     92 H           7.3848   -5.2235    0.0000 H       1  UNL1        0.0271
     93 H           8.1831   -5.2266    0.0000 H       1  UNL1        0.0271
     94 H           8.6930   -5.3843    0.0000 H       1  UNL1        0.0235
     95 H           9.7278   -4.8243    0.0000 H       1  UNL1        0.0235
     96 H          10.3454   -4.2019    0.0000 H       1  UNL1        0.0235
     97 H           9.7230   -3.5843    0.0000 H       1  UNL1        0.0235
     98 H           9.5408   -5.6080    0.0000 H       1  UNL1        0.0235
     99 H           9.7645   -4.7602    0.0000 H       1  UNL1        0.0235
    100 H           8.2005    5.4486    0.0000 H       1  UNL1        0.0937
    101 H           5.1021    4.5172    0.0000 H       1  UNL1        0.2094
    102 H           8.7525    6.7523    0.0000 H       1  UNL1        0.0671
    103 H           5.1350   -4.4960    0.0000 H       1  UNL1        0.1085
    104 H          10.1576    6.9261    0.0000 H       1  UNL1        0.0647
    105 H          10.6710    4.5274    0.0000 H       1  UNL1        0.0587
    106 H          11.0775    5.2130    0.0000 H       1  UNL1        0.0587
    107 H           5.1350   -6.7360    0.0000 H       1  UNL1        0.0683
    108 H          11.0106    5.7962    0.0000 H       1  UNL1        0.0643
    109 H           7.8923    7.2623    0.0000 H       1  UNL1        0.2101
    110 H           3.7320   -6.9260    0.0000 H       1  UNL1        0.0648
    111 H           3.4030   -4.4960    0.0000 H       1  UNL1        0.0647
    112 H           2.8660   -5.8060    0.0000 H       1  UNL1        0.0647
    113 H          10.1691    7.9260    0.0000 H       1  UNL1        0.2100
    114 H           6.5380   -6.3060    0.0000 H       1  UNL1        0.2102
    115 H          11.8823    6.2861    0.0000 H       1  UNL1        0.2100
    116 H           1.9264   -4.5084    0.0000 H       1  UNL1        0.0584
    117 H           2.3249   -5.1986    0.0000 H       1  UNL1        0.0584
    118 H           3.7320   -7.9260    0.0000 H       1  UNL1        0.2100
    119 H           2.0000   -6.3060    0.0000 H       1  UNL1        0.2100
    120 H           2.0000   -3.3060    0.0000 H       1  UNL1        0.2095
@<TRIPOS>BOND
     1    29     1    1
     2    44     1    1
     3     2    38    1
     4     2   101    1
     5     3    41    1
     6    46     3    1
     7     4    41    2
     8     5    44    1
     9     5    48    1
    10     6    46    1
    11     6    52    1
    12    45     7    1
    13     7   109    1
    14    47     8    1
    15     8   113    1
    16    49     9    1
    17     9   114    1
    18    50    10    1
    19    10   115    1
    20    51    11    1
    21    11   118    1
    22    53    12    1
    23    12   119    1
    24    13    54    1
    25    13   120    1
    26    14    15    1
    27    14    17    1
    28    14    19    1
    29    14    28    1
    30    15    16    1
    31    15    24    1
    32    15    55    1
    33    16    18    1
    34    16    25    1
    35    16    31    1
    36    17    22    1
    37    17    26    1
    38    17    34    1
    39    18    20    1
    40    18    21    1
    41    18    56    1
    42    19    21    1
    43    19    57    1
    44    19    58    1
    45    20    29    1
    46    20    38    1
    47    20    39    1
    48    21    59    1
    49    21    60    1
    50    22    23    1
    51    22    33    2
    52    23    27    1
    53    23    35    1
    54    23    61    1
    55    24    33    1
    56    24    62    1
    57    24    63    1
    58    25    32    1
    59    25    64    1
    60    25    65    1
    61    26    30    1
    62    26    66    1
    63    26    67    1
    64    27    30    1
    65    27    36    1
    66    27    41    1
    67    28    68    1
    68    28    69    1
    69    28    70    1
    70    29    32    1
    71    29    71    1
    72    30    72    1
    73    30    73    1
    74    31    74    1
    75    31    75    1
    76    31    76    1
    77    32    77    1
    78    32    78    1
    79    33    79    1
    80    34    80    1
    81    34    81    1
    82    34    82    1
    83    35    37    1
    84    35    83    1
    85    35    84    1
    86    36    40    1
    87    36    85    1
    88    36    86    1
    89    37    40    1
    90    37    42    1
    91    37    43    1
    92    38    87    1
    93    38    88    1
    94    39    89    1
    95    39    90    1
    96    39    91    1
    97    40    92    1
    98    40    93    1
    99    42    95    1
   100    42    96    1
   101    42    97    1
   102    43    94    1
   103    43    98    1
   104    43    99    1
   105    44    45    1
   106    44   100    1
   107    45    47    1
   108    45   102    1
   109    46    49    1
   110    46   103    1
   111    47    50    1
   112    47   104    1
   113    48    50    1
   114    48   105    1
   115    48   106    1
   116    49    51    1
   117    49   107    1
   118    50   108    1
   119    51    53    1
   120    51   110    1
   121    52    53    1
   122    52    54    1
   123    52   111    1
   124    53   112    1
   125    54   116    1
   126    54   117    1
