@<TRIPOS>MOLECULE
IMPHY001333
 50 54 0 0 0
SMALL
GASTEIGER

@<TRIPOS>ATOM
      1 O           6.6555   -2.7562    0.0000 O.3     1  UNL1       -0.4646
      2 O           7.0156   -1.0620    0.0000 O.2     1  UNL1       -0.2453
      3 O           6.4218    3.2021    0.0000 O.3     1  UNL1       -0.5067
      4 N           2.6254   -1.0142    0.0000 N.3     1  UNL1       -0.2937
      5 N           5.7049   -0.0136    0.0000 N.pl3   1  UNL1       -0.3163
      6 C           4.1652   -0.5139    0.0000 C.3     1  UNL1        0.0533
      7 C           3.5397   -1.2086    0.0000 C.3     1  UNL1        0.0349
      8 C           3.8286   -2.0975    0.0000 C.3     1  UNL1        0.0095
      9 C           3.7801    0.5217    0.0000 C.3     1  UNL1       -0.0237
     10 C           5.0795   -0.7083    0.0000 C.2     1  UNL1        0.0304
     11 C           2.3366   -0.1253    0.0000 C.3     1  UNL1        0.0007
     12 C           4.7429   -2.2919    0.0000 C.3     1  UNL1       -0.0089
     13 C           4.5018    1.0697    0.0000 C.ar    1  UNL1       -0.0127
     14 C           5.3683   -1.5972    0.0000 C.2     1  UNL1        0.0553
     15 C           4.1376   -3.0486    0.0000 C.3     1  UNL1       -0.0450
     16 C           3.2031   -2.7922    0.0000 C.2     1  UNL1       -0.0787
     17 C           2.0000   -1.7088    0.0000 C.3     1  UNL1        0.0175
     18 C           5.4161    0.8753    0.0000 C.ar    1  UNL1        0.0388
     19 C           2.2888   -2.5978    0.0000 C.2     1  UNL1       -0.0734
     20 C           4.2129    1.9586    0.0000 C.ar    1  UNL1       -0.0524
     21 C           3.4685   -3.7917    0.0000 C.3     1  UNL1       -0.0644
     22 C           6.3465   -1.8051    0.0000 C.2     1  UNL1        0.3364
     23 C           6.0415    1.5700    0.0000 C.ar    1  UNL1        0.0013
     24 C           4.8384    2.6533    0.0000 C.ar    1  UNL1       -0.0198
     25 C           5.7527    2.4589    0.0000 C.ar    1  UNL1        0.1186
     26 C           7.6336   -2.9641    0.0000 C.3     1  UNL1        0.0820
     27 H           3.2771   -0.4002    0.0000 H       1  UNL1        0.0484
     28 H           4.3564    0.7504    0.0000 H       1  UNL1        0.0290
     29 H           3.5389    1.0929    0.0000 H       1  UNL1        0.0290
     30 H           2.1034    0.4492    0.0000 H       1  UNL1        0.0427
     31 H           1.7542   -0.3378    0.0000 H       1  UNL1        0.0427
     32 H           4.5106   -2.8667    0.0000 H       1  UNL1        0.0325
     33 H           5.2687   -2.6204    0.0000 H       1  UNL1        0.0325
     34 H           4.5193   -3.5371    0.0000 H       1  UNL1        0.0272
     35 H           4.6850   -2.7575    0.0000 H       1  UNL1        0.0272
     36 H           3.3947   -3.3818    0.0000 H       1  UNL1        0.0576
     37 H           1.6183   -1.2203    0.0000 H       1  UNL1        0.0470
     38 H           1.4526   -1.9999    0.0000 H       1  UNL1        0.0470
     39 H           6.3114   -0.1425    0.0000 H       1  UNL1        0.1519
     40 H           1.8740   -3.0586    0.0000 H       1  UNL1        0.0582
     41 H           3.6065    2.0875    0.0000 H       1  UNL1        0.0622
     42 H           3.0077   -3.3769    0.0000 H       1  UNL1        0.0230
     43 H           3.0536   -4.2525    0.0000 H       1  UNL1        0.0230
     44 H           3.9292   -4.2066    0.0000 H       1  UNL1        0.0230
     45 H           6.6480    1.4410    0.0000 H       1  UNL1        0.0673
     46 H           4.6468    3.2429    0.0000 H       1  UNL1        0.0654
     47 H           6.2302    3.7917    0.0000 H       1  UNL1        0.2921
     48 H           7.5047   -3.5706    0.0000 H       1  UNL1        0.0661
     49 H           8.2401   -3.0930    0.0000 H       1  UNL1        0.0661
     50 H           7.7625   -2.3577    0.0000 H       1  UNL1        0.0661
@<TRIPOS>BOND
     1     1    22    1
     2     1    26    1
     3     2    22    2
     4     3    25    1
     5     3    47    1
     6     4     7    1
     7     4    11    1
     8     4    17    1
     9     5    10    1
    10     5    18    1
    11     5    39    1
    12     6     7    1
    13     6     9    1
    14     6    10    1
    15     6    13    1
    16     7     8    1
    17     7    27    1
    18     8    12    1
    19     8    15    1
    20     8    16    1
    21     9    11    1
    22     9    28    1
    23     9    29    1
    24    10    14    2
    25    11    30    1
    26    11    31    1
    27    12    14    1
    28    12    32    1
    29    12    33    1
    30    13    18   ar
    31    13    20   ar
    32    14    22    1
    33    15    21    1
    34    15    34    1
    35    15    35    1
    36    16    19    2
    37    16    36    1
    38    17    19    1
    39    17    37    1
    40    17    38    1
    41    18    23   ar
    42    19    40    1
    43    20    24   ar
    44    20    41    1
    45    21    42    1
    46    21    43    1
    47    21    44    1
    48    23    25   ar
    49    23    45    1
    50    24    25   ar
    51    24    46    1
    52    26    48    1
    53    26    49    1
    54    26    50    1
