@<TRIPOS>MOLECULE
IMPHY007885
 124 130 0 0 0
SMALL
GASTEIGER

@<TRIPOS>ATOM
      1 O           6.9185   -4.2909    0.0000 O.3     1  UNL1       -0.3443
      2 O           3.9849    3.3672    0.0000 O.3     1  UNL1       -0.3449
      3 O           9.1689   -4.6563    0.0000 O.3     1  UNL1       -0.4802
      4 O           7.4370   -4.6763    0.0000 O.2     1  UNL1       -0.2503
      5 O           5.1864   -4.2909    0.0000 O.3     1  UNL1       -0.3405
      6 O           3.6841    5.0730    0.0000 O.3     1  UNL1       -0.3405
      7 O           6.9185   -6.2909    0.0000 O.3     1  UNL1       -0.3841
      8 O           5.9545    3.7145    0.0000 O.3     1  UNL1       -0.3841
      9 O           5.1864   -7.2909    0.0000 O.3     1  UNL1       -0.3864
     10 O           6.6385    5.5939    0.0000 O.3     1  UNL1       -0.3864
     11 O           3.4544   -6.2909    0.0000 O.3     1  UNL1       -0.3865
     12 O           5.3530    7.1260    0.0000 O.3     1  UNL1       -0.3865
     13 O           2.5884   -4.7909    0.0000 O.3     1  UNL1       -0.3924
     14 O           2.3985    6.6050    0.0000 O.3     1  UNL1       -0.3924
     15 C           6.3159   -0.8125    0.0000 C.3     1  UNL1       -0.0193
     16 C           6.6543    0.1285    0.0000 C.3     1  UNL1       -0.0257
     17 C           5.9940    0.9341    0.0000 C.3     1  UNL1       -0.0250
     18 C           6.9616   -1.5761    0.0000 C.3     1  UNL1       -0.0028
     19 C           4.9675    0.7572    0.0000 C.3     1  UNL1       -0.0278
     20 C           5.2937   -1.0132    0.0000 C.3     1  UNL1       -0.0463
     21 C           7.9457   -1.3987    0.0000 C.2     1  UNL1       -0.0627
     22 C           4.6150   -0.2230    0.0000 C.3     1  UNL1       -0.0486
     23 C           4.2605    1.5802    0.0000 C.3     1  UNL1       -0.0052
     24 C           8.6305   -2.1836    0.0000 C.3     1  UNL1       -0.0007
     25 C           6.5940   -2.5507    0.0000 C.3     1  UNL1       -0.0158
     26 C           7.6384    0.3059    0.0000 C.3     1  UNL1       -0.0306
     27 C           6.3846    1.9463    0.0000 C.3     1  UNL1       -0.0447
     28 C           8.2856   -3.1664    0.0000 C.3     1  UNL1        0.1001
     29 C           7.2605   -3.3512    0.0000 C.3     1  UNL1        0.0788
     30 C           5.6760   -1.5811    0.0000 C.3     1  UNL1       -0.0585
     31 C           4.6277    2.6012    0.0000 C.3     1  UNL1        0.0672
     32 C           8.2841   -0.4577    0.0000 C.2     1  UNL1       -0.0836
     33 C           6.9794    1.1039    0.0000 C.3     1  UNL1       -0.0590
     34 C           5.6969    2.7855    0.0000 C.3     1  UNL1       -0.0255
     35 C           6.0975   -2.0794    0.0000 C.3     1  UNL1       -0.0552
     36 C           9.6936   -1.9664    0.0000 C.3     1  UNL1       -0.0402
     37 C           8.9798   -4.0002    0.0000 C.3     1  UNL1       -0.0338
     38 C          10.4069   -2.7839    0.0000 C.3     1  UNL1       -0.0343
     39 C           3.3182    1.9150    0.0000 C.3     1  UNL1       -0.0572
     40 C           3.4994    0.9315    0.0000 C.3     1  UNL1       -0.0572
     41 C          10.0476   -3.8077    0.0000 C.3     1  UNL1       -0.0467
     42 C           8.2972   -4.1664    0.0000 C.2     1  UNL1        0.3140
     43 C          11.3517   -3.1114    0.0000 C.3     1  UNL1       -0.0598
     44 C          11.1629   -2.1294    0.0000 C.3     1  UNL1       -0.0598
     45 C           6.0525   -4.7909    0.0000 C.3     1  UNL1        0.1882
     46 C           4.3269    4.3069    0.0000 C.3     1  UNL1        0.1882
     47 C           6.0525   -5.7909    0.0000 C.3     1  UNL1        0.1341
     48 C           5.3117    4.4806    0.0000 C.3     1  UNL1        0.1341
     49 C           5.1864   -6.2909    0.0000 C.3     1  UNL1        0.1141
     50 C           5.6537    5.4203    0.0000 C.3     1  UNL1        0.1141
     51 C           4.3204   -4.7909    0.0000 C.3     1  UNL1        0.1130
     52 C           4.3204   -5.7909    0.0000 C.3     1  UNL1        0.1119
     53 C           4.0261    6.0126    0.0000 C.3     1  UNL1        0.1130
     54 C           5.0109    6.1863    0.0000 C.3     1  UNL1        0.1119
     55 C           3.4544   -4.2909    0.0000 C.3     1  UNL1        0.0730
     56 C           3.3833    6.7787    0.0000 C.3     1  UNL1        0.0730
     57 H           7.2031   -0.5206    0.0000 H       1  UNL1        0.0315
     58 H           4.1316    0.6031    0.0000 H       1  UNL1        0.0312
     59 H           4.7612   -1.3307    0.0000 H       1  UNL1        0.0271
     60 H           5.5155   -1.5922    0.0000 H       1  UNL1        0.0271
     61 H           4.0761    0.0835    0.0000 H       1  UNL1        0.0268
     62 H           4.2208   -0.7015    0.0000 H       1  UNL1        0.0268
     63 H           9.1893   -2.8240    0.0000 H       1  UNL1        0.0357
     64 H           6.0599   -2.2359    0.0000 H       1  UNL1        0.0299
     65 H           6.1925   -3.0231    0.0000 H       1  UNL1        0.0299
     66 H           8.1741    0.6180    0.0000 H       1  UNL1        0.0310
     67 H           7.4241    0.8877    0.0000 H       1  UNL1        0.0310
     68 H           6.9163    1.6274    0.0000 H       1  UNL1        0.0271
     69 H           6.7898    2.4156    0.0000 H       1  UNL1        0.0271
     70 H           6.6497   -3.4577    0.0000 H       1  UNL1        0.0608
     71 H           5.1996   -1.1844    0.0000 H       1  UNL1        0.0235
     72 H           5.2793   -2.0575    0.0000 H       1  UNL1        0.0235
     73 H           6.1525   -1.9778    0.0000 H       1  UNL1        0.0235
     74 H           4.8408    3.1834    0.0000 H       1  UNL1        0.0602
     75 H           8.8943   -0.3476    0.0000 H       1  UNL1        0.0572
     76 H           7.0848    0.4929    0.0000 H       1  UNL1        0.0235
     77 H           7.5904    1.2092    0.0000 H       1  UNL1        0.0235
     78 H           6.8741    1.7149    0.0000 H       1  UNL1        0.0235
     79 H           6.2366    3.0906    0.0000 H       1  UNL1        0.0290
     80 H           5.4886    3.3694    0.0000 H       1  UNL1        0.0290
     81 H           5.7854   -1.5437    0.0000 H       1  UNL1        0.0238
     82 H           5.5617   -2.3915    0.0000 H       1  UNL1        0.0238
     83 H           6.4095   -2.6152    0.0000 H       1  UNL1        0.0238
     84 H          10.2236   -1.6447    0.0000 H       1  UNL1        0.0276
     85 H           9.4674   -1.3891    0.0000 H       1  UNL1        0.0276
     86 H           8.4425   -4.3096    0.0000 H       1  UNL1        0.0277
     87 H           9.1926   -4.5826    0.0000 H       1  UNL1        0.0277
     88 H           3.5258    2.4992    0.0000 H       1  UNL1        0.0236
     89 H           2.7340    2.1225    0.0000 H       1  UNL1        0.0236
     90 H           3.1106    1.3307    0.0000 H       1  UNL1        0.0236
     91 H           3.0973    1.4034    0.0000 H       1  UNL1        0.0236
     92 H           3.0276    0.5293    0.0000 H       1  UNL1        0.0236
     93 H           3.9016    0.4597    0.0000 H       1  UNL1        0.0236
     94 H          10.0516   -4.4277    0.0000 H       1  UNL1        0.0271
     95 H          10.6591   -3.9099    0.0000 H       1  UNL1        0.0271
     96 H          11.5687   -2.5982    0.0000 H       1  UNL1        0.0235
     97 H          11.6317   -1.7236    0.0000 H       1  UNL1        0.0235
     98 H          10.7571   -1.6607    0.0000 H       1  UNL1        0.0235
     99 H          11.1487   -3.6972    0.0000 H       1  UNL1        0.0235
    100 H          11.9375   -3.3145    0.0000 H       1  UNL1        0.0235
    101 H          11.5548   -2.5256    0.0000 H       1  UNL1        0.0235
    102 H           6.0525   -4.1709    0.0000 H       1  UNL1        0.0937
    103 H           4.7254    3.8320    0.0000 H       1  UNL1        0.0937
    104 H           9.1761   -5.2763    0.0000 H       1  UNL1        0.2951
    105 H           6.0525   -6.4109    0.0000 H       1  UNL1        0.0671
    106 H           5.9223    4.5882    0.0000 H       1  UNL1        0.0671
    107 H           4.6495   -6.6009    0.0000 H       1  UNL1        0.0648
    108 H           5.8658    6.0029    0.0000 H       1  UNL1        0.0648
    109 H           4.3204   -4.1709    0.0000 H       1  UNL1        0.0647
    110 H           3.7835   -5.4809    0.0000 H       1  UNL1        0.0647
    111 H           3.4155    5.9050    0.0000 H       1  UNL1        0.0647
    112 H           4.6124    6.6612    0.0000 H       1  UNL1        0.0647
    113 H           6.9185   -6.9109    0.0000 H       1  UNL1        0.2101
    114 H           6.5651    3.8222    0.0000 H       1  UNL1        0.2101
    115 H           3.8529   -3.8160    0.0000 H       1  UNL1        0.0584
    116 H           3.0559   -3.8160    0.0000 H       1  UNL1        0.0584
    117 H           3.9203    7.0887    0.0000 H       1  UNL1        0.0584
    118 H           3.1713    7.3613    0.0000 H       1  UNL1        0.0584
    119 H           4.6495   -7.6009    0.0000 H       1  UNL1        0.2100
    120 H           6.8506    6.1765    0.0000 H       1  UNL1        0.2100
    121 H           3.4544   -6.9109    0.0000 H       1  UNL1        0.2100
    122 H           4.9544    7.6009    0.0000 H       1  UNL1        0.2100
    123 H           2.0514   -4.4809    0.0000 H       1  UNL1        0.2095
    124 H           2.0000    7.0800    0.0000 H       1  UNL1        0.2095
@<TRIPOS>BOND
     1    29     1    1
     2    45     1    1
     3    31     2    1
     4    46     2    1
     5     3    42    1
     6     3   104    1
     7     4    42    2
     8     5    45    1
     9     5    51    1
    10     6    46    1
    11     6    53    1
    12    47     7    1
    13     7   113    1
    14    48     8    1
    15     8   114    1
    16    49     9    1
    17     9   119    1
    18    50    10    1
    19    10   120    1
    20    52    11    1
    21    11   121    1
    22    54    12    1
    23    12   122    1
    24    13    55    1
    25    13   123    1
    26    14    56    1
    27    14   124    1
    28    15    16    1
    29    15    18    1
    30    15    20    1
    31    15    30    1
    32    16    17    1
    33    16    26    1
    34    16    57    1
    35    17    19    1
    36    17    27    1
    37    17    33    1
    38    18    21    1
    39    18    25    1
    40    18    35    1
    41    19    22    1
    42    19    23    1
    43    19    58    1
    44    20    22    1
    45    20    59    1
    46    20    60    1
    47    21    24    1
    48    21    32    2
    49    22    61    1
    50    22    62    1
    51    23    31    1
    52    23    39    1
    53    23    40    1
    54    24    28    1
    55    24    36    1
    56    24    63    1
    57    25    29    1
    58    25    64    1
    59    25    65    1
    60    26    32    1
    61    26    66    1
    62    26    67    1
    63    27    34    1
    64    27    68    1
    65    27    69    1
    66    28    29    1
    67    28    37    1
    68    28    42    1
    69    29    70    1
    70    30    71    1
    71    30    72    1
    72    30    73    1
    73    31    34    1
    74    31    74    1
    75    32    75    1
    76    33    76    1
    77    33    77    1
    78    33    78    1
    79    34    79    1
    80    34    80    1
    81    35    81    1
    82    35    82    1
    83    35    83    1
    84    36    38    1
    85    36    84    1
    86    36    85    1
    87    37    41    1
    88    37    86    1
    89    37    87    1
    90    38    41    1
    91    38    43    1
    92    38    44    1
    93    39    88    1
    94    39    89    1
    95    39    90    1
    96    40    91    1
    97    40    92    1
    98    40    93    1
    99    41    94    1
   100    41    95    1
   101    43    99    1
   102    43   100    1
   103    43   101    1
   104    44    96    1
   105    44    97    1
   106    44    98    1
   107    45    47    1
   108    45   102    1
   109    46    48    1
   110    46   103    1
   111    47    49    1
   112    47   105    1
   113    48    50    1
   114    48   106    1
   115    49    52    1
   116    49   107    1
   117    50    54    1
   118    50   108    1
   119    51    52    1
   120    51    55    1
   121    51   109    1
   122    52   110    1
   123    53    54    1
   124    53    56    1
   125    53   111    1
   126    54   112    1
   127    55   115    1
   128    55   116    1
   129    56   117    1
   130    56   118    1
