@<TRIPOS>MOLECULE
IMPHY014504
 36 37 0 0 0
SMALL
GASTEIGER

@<TRIPOS>ATOM
      1 O           2.8660   -1.2673    0.0000 O.2     1  UNL1       -0.2924
      2 C           5.4641   -0.7673    0.0000 C.3     1  UNL1       -0.0000
      3 C           5.4641    0.2327    0.0000 C.3     1  UNL1       -0.0066
      4 C           4.5981   -1.2673    0.0000 C.3     1  UNL1        0.0195
      5 C           4.5981    0.7327    0.0000 C.3     1  UNL1       -0.0171
      6 C           6.3580    0.7674    0.0000 C.2     1  UNL1       -0.0684
      7 C           5.4641   -1.7673    0.0000 C.3     1  UNL1       -0.0551
      8 C           6.3580   -1.3020    0.0000 C.2     1  UNL1       -0.0771
      9 C           3.7320    0.2327    0.0000 C.2     1  UNL1       -0.0056
     10 C           3.7320   -0.7673    0.0000 C.2     1  UNL1        0.1600
     11 C           7.2641    0.2535    0.0000 C.2     1  UNL1       -0.0628
     12 C           7.2641   -0.7881    0.0000 C.2     1  UNL1       -0.0652
     13 C           6.3465    1.7673    0.0000 C.3     1  UNL1       -0.0432
     14 C           2.8660    0.7327    0.0000 C.2     1  UNL1       -0.0692
     15 C           2.8660    1.7327    0.0000 C.3     1  UNL1       -0.0434
     16 C           2.0000    0.2327    0.0000 C.3     1  UNL1       -0.0434
     17 H           5.4593    0.8527    0.0000 H       1  UNL1        0.0357
     18 H           4.1996   -1.7422    0.0000 H       1  UNL1        0.0354
     19 H           4.9966   -1.7422    0.0000 H       1  UNL1        0.0354
     20 H           4.9966    1.2076    0.0000 H       1  UNL1        0.0320
     21 H           4.1996    1.2076    0.0000 H       1  UNL1        0.0320
     22 H           4.8441   -1.7673    0.0000 H       1  UNL1        0.0238
     23 H           5.4641   -2.3873    0.0000 H       1  UNL1        0.0238
     24 H           6.0841   -1.7673    0.0000 H       1  UNL1        0.0238
     25 H           6.3509   -1.9219    0.0000 H       1  UNL1        0.0578
     26 H           7.7998    0.5656    0.0000 H       1  UNL1        0.0617
     27 H           7.7998   -1.1002    0.0000 H       1  UNL1        0.0615
     28 H           6.9664    1.7745    0.0000 H       1  UNL1        0.0275
     29 H           6.3393    2.3873    0.0000 H       1  UNL1        0.0275
     30 H           5.7265    1.7601    0.0000 H       1  UNL1        0.0275
     31 H           3.4860    1.7327    0.0000 H       1  UNL1        0.0274
     32 H           2.8660    2.3527    0.0000 H       1  UNL1        0.0274
     33 H           2.2460    1.7327    0.0000 H       1  UNL1        0.0274
     34 H           1.6900    0.7696    0.0000 H       1  UNL1        0.0274
     35 H           1.4631   -0.0773    0.0000 H       1  UNL1        0.0274
     36 H           2.3100   -0.3042    0.0000 H       1  UNL1        0.0274
@<TRIPOS>BOND
     1     1    10    2
     2     2     3    1
     3     2     4    1
     4     2     7    1
     5     2     8    1
     6     3     5    1
     7     3     6    1
     8     3    17    1
     9     4    10    1
    10     4    18    1
    11     4    19    1
    12     5     9    1
    13     5    20    1
    14     5    21    1
    15     6    11    2
    16     6    13    1
    17     7    22    1
    18     7    23    1
    19     7    24    1
    20     8    12    2
    21     8    25    1
    22     9    10    1
    23     9    14    2
    24    11    12    1
    25    11    26    1
    26    12    27    1
    27    13    28    1
    28    13    29    1
    29    13    30    1
    30    14    15    1
    31    14    16    1
    32    15    31    1
    33    15    32    1
    34    15    33    1
    35    16    34    1
    36    16    35    1
    37    16    36    1
