@<TRIPOS>MOLECULE
IMPHY005610
 38 41 0 0 0
SMALL
GASTEIGER

@<TRIPOS>ATOM
      1 O           7.5110    1.0008    0.0000 O.3     1  UNL1       -0.3384
      2 O           7.3206   -1.4827    0.0000 O.3     1  UNL1       -0.4471
      3 O           5.6648    1.5168    0.0000 O.3     1  UNL1       -0.3217
      4 O           3.9609    1.6741    0.0000 O.3     1  UNL1       -0.3661
      5 O           2.9327    0.3722    0.0000 O.3     1  UNL1       -0.4676
      6 O           8.9025   -2.2908    0.0000 O.2     1  UNL1       -0.2452
      7 O           3.5572   -1.2434    0.0000 O.2     1  UNL1       -0.2503
      8 C           6.2020    0.0497    0.0000 C.3     1  UNL1        0.0637
      9 C           7.0110   -0.5381    0.0000 C.3     1  UNL1        0.1701
     10 C           5.3992   -0.5367    0.0000 C.3     1  UNL1        0.0064
     11 C           6.5110    1.0008    0.0000 C.3     1  UNL1        0.1705
     12 C           7.8200    0.0497    0.0000 C.3     1  UNL1        0.1366
     13 C           4.6441    0.1052    0.0000 C.3     1  UNL1        0.1137
     14 C           6.7013   -1.4827    0.0000 C.2     1  UNL1       -0.0412
     15 C           5.7073   -1.4818    0.0000 C.2     1  UNL1       -0.0795
     16 C           4.7712    1.0881    0.0000 C.3     1  UNL1        0.1726
     17 C           8.6227   -0.5367    0.0000 C.2     1  UNL1        0.0652
     18 C           8.3147   -1.4818    0.0000 C.2     1  UNL1        0.3384
     19 C           3.7114   -0.2553    0.0000 C.2     1  UNL1        0.3154
     20 C           9.5743   -0.2293    0.0000 C.2     1  UNL1       -0.0745
     21 C           9.7839    0.7485    0.0000 C.3     1  UNL1       -0.0460
     22 C           2.0000    0.0117    0.0000 C.3     1  UNL1        0.0817
     23 H           5.9393   -0.7587    0.0000 H       1  UNL1        0.0399
     24 H           4.6933   -1.0100    0.0000 H       1  UNL1        0.0358
     25 H           6.7408    1.8191    0.0000 H       1  UNL1        0.0915
     26 H           8.5083    0.5484    0.0000 H       1  UNL1        0.0693
     27 H           4.5405   -0.5061    0.0000 H       1  UNL1        0.0470
     28 H           7.0649   -1.9849    0.0000 H       1  UNL1        0.0609
     29 H           5.3428   -1.9834    0.0000 H       1  UNL1        0.0573
     30 H           4.2021    0.8421    0.0000 H       1  UNL1        0.0917
     31 H          10.0343   -0.6450    0.0000 H       1  UNL1        0.0575
     32 H           4.0243    2.2908    0.0000 H       1  UNL1        0.2125
     33 H          10.3901    0.6185    0.0000 H       1  UNL1        0.0272
     34 H           9.9138    1.3547    0.0000 H       1  UNL1        0.0272
     35 H           9.1777    0.8784    0.0000 H       1  UNL1        0.0272
     36 H           1.7765    0.5900    0.0000 H       1  UNL1        0.0661
     37 H           1.4217   -0.2119    0.0000 H       1  UNL1        0.0661
     38 H           2.2235   -0.5666    0.0000 H       1  UNL1        0.0661
@<TRIPOS>BOND
     1     1    11    1
     2     1    12    1
     3     9     2    1
     4     2    18    1
     5     3    11    1
     6     3    16    1
     7    16     4    1
     8     4    32    1
     9     5    19    1
    10     5    22    1
    11     6    18    2
    12     7    19    2
    13     8     9    1
    14     8    10    1
    15     8    11    1
    16     8    23    1
    17     9    12    1
    18     9    14    1
    19    10    13    1
    20    10    15    1
    21    10    24    1
    22    11    25    1
    23    12    17    1
    24    12    26    1
    25    13    16    1
    26    13    19    1
    27    13    27    1
    28    14    15    2
    29    14    28    1
    30    15    29    1
    31    16    30    1
    32    17    18    1
    33    17    20    2
    34    20    21    1
    35    20    31    1
    36    21    33    1
    37    21    34    1
    38    21    35    1
    39    22    36    1
    40    22    37    1
    41    22    38    1
