@<TRIPOS>MOLECULE
IMPHY013683
 123 129 0 0 0
SMALL
GASTEIGER

@<TRIPOS>ATOM
      1 O           6.8671   -5.0596    0.0000 O.3     1  UNL1       -0.3445
      2 O           6.8270    5.3338    0.0000 O.3     1  UNL1       -0.3912
      3 O           8.6209    4.2198    0.0000 O.3     1  UNL1       -0.4318
      4 O           9.5042    2.7300    0.0000 O.2     1  UNL1       -0.2501
      5 O           9.3112   -4.3679    0.0000 O.2     1  UNL1       -0.3004
      6 O           5.1350   -5.0596    0.0000 O.3     1  UNL1       -0.3405
      7 O           9.4695    5.7298    0.0000 O.3     1  UNL1       -0.3312
      8 O           6.8671   -7.0596    0.0000 O.3     1  UNL1       -0.3841
      9 O           5.1350   -8.0596    0.0000 O.3     1  UNL1       -0.3864
     10 O          10.3644    3.2399    0.0000 O.3     1  UNL1       -0.3829
     11 O           3.4030   -7.0596    0.0000 O.3     1  UNL1       -0.3865
     12 O          12.0847    4.2599    0.0000 O.3     1  UNL1       -0.3864
     13 O          12.0616    6.2598    0.0000 O.3     1  UNL1       -0.3865
     14 O           2.5369   -5.5596    0.0000 O.3     1  UNL1       -0.3924
     15 O          11.1783    7.7496    0.0000 O.3     1  UNL1       -0.3924
     16 C           7.7681   -0.3594    0.0000 C.3     1  UNL1       -0.0194
     17 C           6.9040   -0.8627    0.0000 C.3     1  UNL1       -0.0257
     18 C           6.8920   -1.9043    0.0000 C.3     1  UNL1       -0.0246
     19 C           7.7643    0.6406    0.0000 C.3     1  UNL1       -0.0051
     20 C           7.7920   -2.4286    0.0000 C.3     1  UNL1       -0.0211
     21 C           8.6801   -0.8627    0.0000 C.3     1  UNL1       -0.0463
     22 C           6.8963    1.1373    0.0000 C.2     1  UNL1       -0.0629
     23 C           8.6921   -1.9043    0.0000 C.3     1  UNL1       -0.0482
     24 C           6.8762    2.1787    0.0000 C.3     1  UNL1       -0.0030
     25 C           7.8046   -3.5135    0.0000 C.3     1  UNL1        0.0526
     26 C           6.0361   -0.3661    0.0000 C.3     1  UNL1       -0.0306
     27 C           8.6723    1.1510    0.0000 C.3     1  UNL1       -0.0424
     28 C           7.7722    2.7099    0.0000 C.3     1  UNL1        0.0767
     29 C           5.9421   -2.4286    0.0000 C.3     1  UNL1       -0.0447
     30 C           8.6763    2.1926    0.0000 C.3     1  UNL1       -0.0358
     31 C           8.7522   -0.1819    0.0000 C.3     1  UNL1       -0.0585
     32 C           6.0322    0.6339    0.0000 C.2     1  UNL1       -0.0836
     33 C           6.8671   -4.0596    0.0000 C.3     1  UNL1        0.0738
     34 C           6.0279   -1.4009    0.0000 C.3     1  UNL1       -0.0590
     35 C           5.9295   -3.5135    0.0000 C.3     1  UNL1       -0.0251
     36 C           8.7497    0.4708    0.0000 C.3     1  UNL1       -0.0553
     37 C           5.9223    2.6957    0.0000 C.3     1  UNL1       -0.0379
     38 C           7.7764    3.7949    0.0000 C.3     1  UNL1       -0.0100
     39 C           5.9014    3.7804    0.0000 C.3     1  UNL1       -0.0083
     40 C           6.8347    4.3338    0.0000 C.3     1  UNL1        0.0614
     41 C           8.8046   -3.5058    0.0000 C.3     1  UNL1       -0.0504
     42 C           8.6324    3.2199    0.0000 C.2     1  UNL1        0.3162
     43 C           8.3113   -4.3756    0.0000 C.2     1  UNL1        0.1289
     44 C           5.3881    4.6387    0.0000 C.3     1  UNL1       -0.0574
     45 C           4.9015    3.7650    0.0000 C.3     1  UNL1       -0.0574
     46 C           6.0010   -5.5596    0.0000 C.3     1  UNL1        0.1882
     47 C           6.0010   -6.5596    0.0000 C.3     1  UNL1        0.1341
     48 C           9.4810    4.7298    0.0000 C.3     1  UNL1        0.2337
     49 C           5.1350   -7.0596    0.0000 C.3     1  UNL1        0.1141
     50 C           4.2690   -5.5596    0.0000 C.3     1  UNL1        0.1130
     51 C          10.3528    4.2399    0.0000 C.3     1  UNL1        0.1455
     52 C           4.2690   -6.5596    0.0000 C.3     1  UNL1        0.1119
     53 C          11.2130    4.7498    0.0000 C.3     1  UNL1        0.1152
     54 C          10.3297    6.2397    0.0000 C.3     1  UNL1        0.1140
     55 C          11.2014    5.7498    0.0000 C.3     1  UNL1        0.1120
     56 C           3.4030   -5.0596    0.0000 C.3     1  UNL1        0.0730
     57 C          10.3181    7.2397    0.0000 C.3     1  UNL1        0.0731
     58 H           7.4398   -1.1748    0.0000 H       1  UNL1        0.0315
     59 H           8.3314   -2.7344    0.0000 H       1  UNL1        0.0316
     60 H           9.2921   -0.9617    0.0000 H       1  UNL1        0.0271
     61 H           8.8824   -0.2766    0.0000 H       1  UNL1        0.0271
     62 H           8.9079   -2.4855    0.0000 H       1  UNL1        0.0269
     63 H           9.3017   -1.7911    0.0000 H       1  UNL1        0.0269
     64 H           6.3466    1.8564    0.0000 H       1  UNL1        0.0357
     65 H           5.4251   -0.2607    0.0000 H       1  UNL1        0.0310
     66 H           5.8263   -0.9495    0.0000 H       1  UNL1        0.0310
     67 H           8.8791    0.5665    0.0000 H       1  UNL1        0.0274
     68 H           9.2836    1.2547    0.0000 H       1  UNL1        0.0274
     69 H           5.7398   -1.8425    0.0000 H       1  UNL1        0.0271
     70 H           5.3300   -2.5276    0.0000 H       1  UNL1        0.0271
     71 H           9.2868    2.0841    0.0000 H       1  UNL1        0.0276
     72 H           8.8876    2.7755    0.0000 H       1  UNL1        0.0276
     73 H           8.8623   -0.7921    0.0000 H       1  UNL1        0.0235
     74 H           9.3624   -0.0719    0.0000 H       1  UNL1        0.0235
     75 H           8.6422    0.4282    0.0000 H       1  UNL1        0.0235
     76 H           5.4941    0.9419    0.0000 H       1  UNL1        0.0572
     77 H           7.4046   -4.3686    0.0000 H       1  UNL1        0.0606
     78 H           6.3400   -0.8652    0.0000 H       1  UNL1        0.0235
     79 H           5.4922   -1.0889    0.0000 H       1  UNL1        0.0235
     80 H           5.7158   -1.9367    0.0000 H       1  UNL1        0.0235
     81 H           5.3199   -3.4003    0.0000 H       1  UNL1        0.0291
     82 H           5.7137   -4.0947    0.0000 H       1  UNL1        0.0291
     83 H           8.6444   -0.1402    0.0000 H       1  UNL1        0.0238
     84 H           9.3607    0.3655    0.0000 H       1  UNL1        0.0238
     85 H           8.8550    1.0818    0.0000 H       1  UNL1        0.0238
     86 H           5.3095    2.7900    0.0000 H       1  UNL1        0.0277
     87 H           5.7246    2.1080    0.0000 H       1  UNL1        0.0277
     88 H           8.3869    3.6865    0.0000 H       1  UNL1        0.0301
     89 H           7.9877    4.3778    0.0000 H       1  UNL1        0.0301
     90 H           7.3698    4.6469    0.0000 H       1  UNL1        0.0599
     91 H           8.8094   -4.1258    0.0000 H       1  UNL1        0.0240
     92 H           9.4246   -3.5010    0.0000 H       1  UNL1        0.0240
     93 H           8.7998   -2.8858    0.0000 H       1  UNL1        0.0240
     94 H           8.0054   -4.9149    0.0000 H       1  UNL1        0.1033
     95 H           5.9202    4.9569    0.0000 H       1  UNL1        0.0236
     96 H           5.0699    5.1708    0.0000 H       1  UNL1        0.0236
     97 H           4.8560    4.3204    0.0000 H       1  UNL1        0.0236
     98 H           4.8920    4.3850    0.0000 H       1  UNL1        0.0236
     99 H           4.2816    3.7555    0.0000 H       1  UNL1        0.0236
    100 H           4.9111    3.1451    0.0000 H       1  UNL1        0.0236
    101 H           7.3615    5.6479    0.0000 H       1  UNL1        0.2098
    102 H           6.0010   -4.9396    0.0000 H       1  UNL1        0.0937
    103 H           6.0010   -7.1796    0.0000 H       1  UNL1        0.0671
    104 H           9.4882    4.1099    0.0000 H       1  UNL1        0.1085
    105 H           4.5981   -7.3696    0.0000 H       1  UNL1        0.0648
    106 H           4.2690   -4.9396    0.0000 H       1  UNL1        0.0647
    107 H          10.8933    3.9361    0.0000 H       1  UNL1        0.0683
    108 H           4.2690   -7.1796    0.0000 H       1  UNL1        0.0647
    109 H          11.7463    5.0660    0.0000 H       1  UNL1        0.0648
    110 H           6.8671   -7.6796    0.0000 H       1  UNL1        0.2101
    111 H           9.7892    6.5435    0.0000 H       1  UNL1        0.0647
    112 H          11.1943    6.3697    0.0000 H       1  UNL1        0.0647
    113 H           3.8015   -4.5846    0.0000 H       1  UNL1        0.0584
    114 H           3.0044   -4.5846    0.0000 H       1  UNL1        0.0584
    115 H           4.5981   -8.3696    0.0000 H       1  UNL1        0.2100
    116 H          10.9049    2.9362    0.0000 H       1  UNL1        0.2102
    117 H           3.4030   -7.6796    0.0000 H       1  UNL1        0.2100
    118 H          10.0993    7.8198    0.0000 H       1  UNL1        0.0584
    119 H           9.7088    7.1250    0.0000 H       1  UNL1        0.0584
    120 H          12.6181    4.5761    0.0000 H       1  UNL1        0.2100
    121 H          12.6021    5.9560    0.0000 H       1  UNL1        0.2100
    122 H           2.0000   -5.2496    0.0000 H       1  UNL1        0.2095
    123 H          11.1711    8.3696    0.0000 H       1  UNL1        0.2095
@<TRIPOS>BOND
     1     1    33    1
     2     1    46    1
     3     2    40    1
     4     2   101    1
     5     3    42    1
     6     3    48    1
     7     4    42    2
     8     5    43    2
     9     6    46    1
    10     6    50    1
    11     7    48    1
    12     7    54    1
    13     8    47    1
    14     8   110    1
    15     9    49    1
    16     9   115    1
    17    10    51    1
    18    10   116    1
    19    11    52    1
    20    11   117    1
    21    12    53    1
    22    12   120    1
    23    13    55    1
    24    13   121    1
    25    14    56    1
    26    14   122    1
    27    15    57    1
    28    15   123    1
    29    16    17    1
    30    16    19    1
    31    16    21    1
    32    16    31    1
    33    17    18    1
    34    17    26    1
    35    17    58    1
    36    18    20    1
    37    18    29    1
    38    18    34    1
    39    19    22    1
    40    19    27    1
    41    19    36    1
    42    20    23    1
    43    20    25    1
    44    20    59    1
    45    21    23    1
    46    21    60    1
    47    21    61    1
    48    22    24    1
    49    22    32    2
    50    23    62    1
    51    23    63    1
    52    24    28    1
    53    24    37    1
    54    24    64    1
    55    25    33    1
    56    25    41    1
    57    25    43    1
    58    26    32    1
    59    26    65    1
    60    26    66    1
    61    27    30    1
    62    27    67    1
    63    27    68    1
    64    28    30    1
    65    28    38    1
    66    28    42    1
    67    29    35    1
    68    29    69    1
    69    29    70    1
    70    30    71    1
    71    30    72    1
    72    31    73    1
    73    31    74    1
    74    31    75    1
    75    32    76    1
    76    33    35    1
    77    33    77    1
    78    34    78    1
    79    34    79    1
    80    34    80    1
    81    35    81    1
    82    35    82    1
    83    36    83    1
    84    36    84    1
    85    36    85    1
    86    37    39    1
    87    37    86    1
    88    37    87    1
    89    38    40    1
    90    38    88    1
    91    38    89    1
    92    39    40    1
    93    39    44    1
    94    39    45    1
    95    40    90    1
    96    41    91    1
    97    41    92    1
    98    41    93    1
    99    43    94    1
   100    44    95    1
   101    44    96    1
   102    44    97    1
   103    45    98    1
   104    45    99    1
   105    45   100    1
   106    46    47    1
   107    46   102    1
   108    47    49    1
   109    47   103    1
   110    48    51    1
   111    48   104    1
   112    49    52    1
   113    49   105    1
   114    50    52    1
   115    50    56    1
   116    50   106    1
   117    51    53    1
   118    51   107    1
   119    52   108    1
   120    53    55    1
   121    53   109    1
   122    54    55    1
   123    54    57    1
   124    54   111    1
   125    55   112    1
   126    56   113    1
   127    56   114    1
   128    57   118    1
   129    57   119    1
