@<TRIPOS>MOLECULE
IMPHY014607
 90 97 0 0 0
SMALL
GASTEIGER

@<TRIPOS>ATOM
      1 O           6.1478    1.9294    0.0000 O.3     1  UNL1       -0.3578
      2 O          10.2821    2.8588    0.0000 O.3     1  UNL1       -0.3329
      3 O           4.5465    0.7486    0.0000 O.3     1  UNL1       -0.3724
      4 O           8.1535   -1.4122    0.0000 O.3     1  UNL1       -0.3392
      5 O           5.6296    1.7455    0.0000 O.3     1  UNL1       -0.3886
      6 O           8.1503    4.1594    0.0000 O.3     1  UNL1       -0.3778
      7 O           9.2278   -0.7128    0.0000 O.3     1  UNL1       -0.3560
      8 O           7.2834   -2.4288    0.0000 O.3     1  UNL1       -0.3910
      9 O          10.5747    4.7334    0.0000 O.2     1  UNL1       -0.4680
     10 O           3.7436   -2.4424    0.0000 O.3     1  UNL1       -0.4568
     11 O           3.1097   -1.7528    0.0000 O.3     1  UNL1       -0.4674
     12 O           9.6365    0.4091    0.0000 O.3     1  UNL1       -0.4642
     13 O           3.1297   -0.0209    0.0000 O.2     1  UNL1       -0.2500
     14 O           8.0554    1.1164    0.0000 O.2     1  UNL1       -0.2447
     15 O           4.6038   -3.9458    0.0000 O.2     1  UNL1       -0.2453
     16 C           7.0880    1.5875    0.0000 C.3     1  UNL1        0.1334
     17 C           7.2616    0.6027    0.0000 C.3     1  UNL1        0.0394
     18 C           6.9143    2.5723    0.0000 C.3     1  UNL1        0.1055
     19 C           7.2616   -0.3973    0.0000 C.3     1  UNL1        0.0452
     20 C           6.3956   -0.8973    0.0000 C.3     1  UNL1        0.0356
     21 C           8.3972    2.7024    0.0000 C.3     1  UNL1        0.0316
     22 C           8.5709    1.7176    0.0000 C.3     1  UNL1        0.0955
     23 C           5.5296   -0.3973    0.0000 C.3     1  UNL1        0.0196
     24 C           6.3956    1.1027    0.0000 C.3     1  UNL1        0.0902
     25 C           9.6538    1.1383    0.0000 C.3     1  UNL1       -0.0149
     26 C           5.5296    0.6027    0.0000 C.3     1  UNL1        0.0898
     27 C           4.6196   -0.9042    0.0000 C.3     1  UNL1        0.1334
     28 C           9.1380    4.0030    0.0000 C.3     1  UNL1        0.1545
     29 C           8.2334   -0.6065    0.0000 C.3     1  UNL1        0.2720
     30 C           6.4117   -1.9388    0.0000 C.3     1  UNL1        0.0672
     31 C           8.0277   -0.0401    0.0000 C.3     1  UNL1       -0.0538
     32 C           7.0627   -1.6343    0.0000 C.3     1  UNL1        0.0603
     33 C           6.7407    3.5571    0.0000 C.3     1  UNL1       -0.0326
     34 C          10.1257    3.8465    0.0000 C.3     1  UNL1        0.2342
     35 C           4.6116   -1.9458    0.0000 C.3     1  UNL1        0.1239
     36 C           5.5136   -2.4666    0.0000 C.3     1  UNL1        0.0122
     37 C           4.0328   -0.1021    0.0000 C.3     1  UNL1        0.0677
     38 C           8.9851    4.9852    0.0000 C.2     1  UNL1       -0.0121
     39 C           3.6196   -0.8926    0.0000 C.2     1  UNL1        0.3193
     40 C           8.6418    0.3063    0.0000 C.2     1  UNL1        0.3675
     41 C           9.8712    5.4357    0.0000 C.2     1  UNL1        0.0870
     42 C           3.7398   -3.4424    0.0000 C.2     1  UNL1        0.3349
     43 C           2.1097   -1.7412    0.0000 C.3     1  UNL1        0.0817
     44 C          10.2228   -0.4009    0.0000 C.3     1  UNL1        0.0818
     45 C           2.8718   -3.9391    0.0000 C.2     1  UNL1        0.0293
     46 C           2.0077   -3.4357    0.0000 C.3     1  UNL1       -0.0333
     47 C           2.8680   -4.9391    0.0000 C.2     1  UNL1       -0.0774
     48 C           2.0000   -5.4357    0.0000 C.3     1  UNL1       -0.0461
     49 H           7.9229    0.1367    0.0000 H       1  UNL1        0.0373
     50 H           8.2496    3.5394    0.0000 H       1  UNL1        0.0363
     51 H           8.7185    0.8805    0.0000 H       1  UNL1        0.0627
     52 H           5.5296   -1.2473    0.0000 H       1  UNL1        0.0346
     53 H           6.7512    1.6106    0.0000 H       1  UNL1        0.0626
     54 H           9.5907    0.5215    0.0000 H       1  UNL1        0.0296
     55 H          10.2483    1.3141    0.0000 H       1  UNL1        0.0296
     56 H           5.3706    1.4377    0.0000 H       1  UNL1        0.0625
     57 H           6.4176   -2.5588    0.0000 H       1  UNL1        0.0601
     58 H           7.6292   -0.5151    0.0000 H       1  UNL1        0.0237
     59 H           8.5026   -0.4386    0.0000 H       1  UNL1        0.0237
     60 H           8.4262    0.4348    0.0000 H       1  UNL1        0.0237
     61 H           6.5365   -1.9623    0.0000 H       1  UNL1        0.0567
     62 H           7.2922   -2.2103    0.0000 H       1  UNL1        0.0567
     63 H           7.3513    3.6648    0.0000 H       1  UNL1        0.0258
     64 H           6.6330    4.1677    0.0000 H       1  UNL1        0.0258
     65 H           6.1301    3.4494    0.0000 H       1  UNL1        0.0258
     66 H          10.9652    3.7135    0.0000 H       1  UNL1        0.1090
     67 H           4.0764   -1.6327    0.0000 H       1  UNL1        0.0747
     68 H           5.1163   -2.9426    0.0000 H       1  UNL1        0.0326
     69 H           5.9146   -2.9395    0.0000 H       1  UNL1        0.0326
     70 H           3.5488    0.2855    0.0000 H       1  UNL1        0.0572
     71 H           3.5849   -0.5308    0.0000 H       1  UNL1        0.0572
     72 H           5.0470    1.5334    0.0000 H       1  UNL1        0.2099
     73 H           8.4331    5.2676    0.0000 H       1  UNL1        0.0633
     74 H           7.9281    4.7382    0.0000 H       1  UNL1        0.2109
     75 H           9.4790   -1.2796    0.0000 H       1  UNL1        0.2133
     76 H           7.2906   -3.0487    0.0000 H       1  UNL1        0.2098
     77 H           9.9682    6.0481    0.0000 H       1  UNL1        0.1022
     78 H           2.1169   -1.1213    0.0000 H       1  UNL1        0.0661
     79 H           1.4898   -1.7341    0.0000 H       1  UNL1        0.0661
     80 H           2.1026   -2.3612    0.0000 H       1  UNL1        0.0661
     81 H           9.7206   -0.7645    0.0000 H       1  UNL1        0.0661
     82 H          10.5864   -0.9031    0.0000 H       1  UNL1        0.0661
     83 H          10.7251   -0.0374    0.0000 H       1  UNL1        0.0661
     84 H           2.3198   -2.9000    0.0000 H       1  UNL1        0.0280
     85 H           1.4720   -3.1237    0.0000 H       1  UNL1        0.0280
     86 H           1.6956   -3.9715    0.0000 H       1  UNL1        0.0280
     87 H           3.4037   -5.2511    0.0000 H       1  UNL1        0.0574
     88 H           1.6921   -4.8976    0.0000 H       1  UNL1        0.0272
     89 H           1.4619   -5.7436    0.0000 H       1  UNL1        0.0272
     90 H           2.3079   -5.9738    0.0000 H       1  UNL1        0.0272
@<TRIPOS>BOND
     1    16     1    1
     2     1    18    1
     3     2    22    1
     4     2    34    1
     5     3    26    1
     6     3    37    1
     7     4    29    1
     8     4    32    1
     9    24     5    1
    10     5    72    1
    11    28     6    1
    12     6    74    1
    13    29     7    1
    14     7    75    1
    15    30     8    1
    16     8    76    1
    17     9    34    1
    18     9    41    1
    19    35    10    1
    20    10    42    1
    21    11    39    1
    22    11    43    1
    23    12    40    1
    24    12    44    1
    25    13    39    2
    26    14    40    2
    27    15    42    2
    28    16    17    1
    29    16    18    1
    30    16    22    1
    31    17    19    1
    32    17    24    1
    33    17    31    1
    34    18    21    1
    35    18    33    1
    36    19    20    1
    37    19    29    1
    38    19    49    1
    39    20    23    1
    40    20    30    1
    41    20    32    1
    42    21    25    1
    43    21    28    1
    44    21    50    1
    45    22    25    1
    46    22    51    1
    47    23    26    1
    48    23    27    1
    49    23    52    1
    50    24    26    1
    51    24    53    1
    52    25    54    1
    53    25    55    1
    54    26    56    1
    55    27    35    1
    56    27    37    1
    57    27    39    1
    58    28    34    1
    59    28    38    1
    60    29    40    1
    61    30    36    1
    62    30    57    1
    63    31    58    1
    64    31    59    1
    65    31    60    1
    66    32    61    1
    67    32    62    1
    68    33    63    1
    69    33    64    1
    70    33    65    1
    71    34    66    1
    72    35    36    1
    73    35    67    1
    74    36    68    1
    75    36    69    1
    76    37    70    1
    77    37    71    1
    78    38    41    2
    79    38    73    1
    80    41    77    1
    81    42    45    1
    82    43    78    1
    83    43    79    1
    84    43    80    1
    85    44    81    1
    86    44    82    1
    87    44    83    1
    88    45    46    1
    89    45    47    2
    90    46    84    1
    91    46    85    1
    92    46    86    1
    93    47    48    1
    94    47    87    1
    95    48    88    1
    96    48    89    1
    97    48    90    1
