@<TRIPOS>MOLECULE
IMPHY006923
 33 36 0 0 0
SMALL
GASTEIGER

@<TRIPOS>ATOM
      1 O           5.5321   -0.6190    0.0000 O.3     1  UNL1       -0.4866
      2 O           3.6971    3.4007    0.0000 O.3     1  UNL1       -0.4951
      3 O           3.6971   -3.5972    0.0000 O.3     1  UNL1       -0.5066
      4 C           3.7320    0.4018    0.0000 C.ar    1  UNL1       -0.0043
      5 C           3.7320   -0.5982    0.0000 C.ar    1  UNL1        0.0278
      6 C           2.8660    0.9018    0.0000 C.ar    1  UNL1       -0.0354
      7 C           2.0000    0.4018    0.0000 C.3     1  UNL1       -0.0230
      8 C           2.0000   -0.5982    0.0000 C.3     1  UNL1       -0.0229
      9 C           2.8660   -1.0982    0.0000 C.ar    1  UNL1       -0.0324
     10 C           4.6260    0.9364    0.0000 C.ar    1  UNL1        0.0011
     11 C           4.6260   -1.1329    0.0000 C.ar    1  UNL1        0.1324
     12 C           5.5321    0.4226    0.0000 C.3     1  UNL1        0.1153
     13 C           2.8648    1.8935    0.0000 C.ar    1  UNL1       -0.0162
     14 C           2.8648   -2.0899    0.0000 C.ar    1  UNL1       -0.0162
     15 C           4.5882    1.9274    0.0000 C.ar    1  UNL1       -0.0130
     16 C           3.7168    2.4009    0.0000 C.ar    1  UNL1        0.1208
     17 C           4.5882   -2.1239    0.0000 C.ar    1  UNL1        0.0222
     18 C           3.7168   -2.5974    0.0000 C.ar    1  UNL1        0.1206
     19 C           4.5531    3.9177    0.0000 C.3     1  UNL1        0.0788
     20 H           1.7880    0.9844    0.0000 H       1  UNL1        0.0317
     21 H           1.3894    0.2941    0.0000 H       1  UNL1        0.0317
     22 H           1.3894   -0.4906    0.0000 H       1  UNL1        0.0317
     23 H           1.7880   -1.1808    0.0000 H       1  UNL1        0.0317
     24 H           6.1429    0.3165    0.0000 H       1  UNL1        0.0748
     25 H           5.7411    1.0063    0.0000 H       1  UNL1        0.0748
     26 H           2.3256    2.1995    0.0000 H       1  UNL1        0.0657
     27 H           2.3256   -2.3959    0.0000 H       1  UNL1        0.0657
     28 H           5.1149    2.2544    0.0000 H       1  UNL1        0.0658
     29 H           5.1149   -2.4509    0.0000 H       1  UNL1        0.0691
     30 H           4.2279   -3.9177    0.0000 H       1  UNL1        0.2921
     31 H           4.8737    3.3870    0.0000 H       1  UNL1        0.0660
     32 H           5.0839    4.2382    0.0000 H       1  UNL1        0.0660
     33 H           4.2326    4.4484    0.0000 H       1  UNL1        0.0660
@<TRIPOS>BOND
     1     1    11    1
     2     1    12    1
     3     2    16    1
     4     2    19    1
     5     3    18    1
     6     3    30    1
     7     4     5    1
     8     4     6   ar
     9     4    10   ar
    10     5     9   ar
    11     5    11   ar
    12     6     7    1
    13     6    13   ar
    14     7     8    1
    15     7    20    1
    16     7    21    1
    17     8     9    1
    18     8    22    1
    19     8    23    1
    20     9    14   ar
    21    10    12    1
    22    10    15   ar
    23    11    17   ar
    24    12    24    1
    25    12    25    1
    26    13    16   ar
    27    13    26    1
    28    14    18   ar
    29    14    27    1
    30    15    16   ar
    31    15    28    1
    32    17    18   ar
    33    17    29    1
    34    19    31    1
    35    19    32    1
    36    19    33    1
