@<TRIPOS>MOLECULE
IMPHY016456
 10 10 0 0 0
SMALL
GASTEIGER

@<TRIPOS>ATOM
      1 S           3.7601   -0.7694    0.0000 S.2     1  UNL1        0.0313
      2 N           4.2601    0.7694    0.0000 N.ar    1  UNL1       -0.1493
      3 N           4.5691   -0.1816    0.0000 N.ar    1  UNL1       -0.1103
      4 C           2.9511   -0.1816    0.0000 C.ar    1  UNL1        0.0267
      5 C           2.0000   -0.4907    0.0000 C.3     1  UNL1       -0.0304
      6 C           3.2601    0.7694    0.0000 C.ar    1  UNL1        0.0614
      7 H           1.8084    0.0990    0.0000 H       1  UNL1        0.0284
      8 H           1.4103   -0.6822    0.0000 H       1  UNL1        0.0284
      9 H           2.1916   -1.0803    0.0000 H       1  UNL1        0.0284
     10 H           2.8956    1.2710    0.0000 H       1  UNL1        0.0857
@<TRIPOS>BOND
     1     1     3   ar
     2     1     4   ar
     3     2     3   ar
     4     2     6   ar
     5     4     5    1
     6     4     6   ar
     7     5     7    1
     8     5     8    1
     9     5     9    1
    10     6    10    1
