@<TRIPOS>MOLECULE
IMPHY016996
 28 29 0 0 0
SMALL
GASTEIGER

@<TRIPOS>ATOM
      1 O           6.0013    2.0602    0.0000 O.3     1  UNL1       -0.3679
      2 C           6.0010    1.0598    0.0000 C.3     1  UNL1        0.0858
      3 C           5.1350    1.5598    0.0000 C.3     1  UNL1        0.0886
      4 C           6.0010    0.0598    0.0000 C.3     1  UNL1       -0.0207
      5 C           4.2690    1.0598    0.0000 C.3     1  UNL1       -0.0059
      6 C           5.7349   -1.0651    0.0000 C.3     1  UNL1       -0.0323
      7 C           3.4030    1.5598    0.0000 C.2     1  UNL1       -0.0854
      8 C           4.8689   -1.5651    0.0000 C.2     1  UNL1       -0.0878
      9 C           2.5369    1.0598    0.0000 C.2     1  UNL1       -0.0876
     10 C           2.5369    0.0598    0.0000 C.3     1  UNL1       -0.0313
     11 C           3.4030   -0.4402    0.0000 C.3     1  UNL1       -0.0313
     12 C           3.9030   -1.3063    0.0000 C.2     1  UNL1       -0.0876
     13 H           6.6210    1.0597    0.0000 H       1  UNL1        0.0622
     14 H           4.8249    2.0967    0.0000 H       1  UNL1        0.0625
     15 H           6.4837   -0.3293    0.0000 H       1  UNL1        0.0294
     16 H           5.3852    0.1316    0.0000 H       1  UNL1        0.0294
     17 H           3.8705    0.5848    0.0000 H       1  UNL1        0.0333
     18 H           4.6675    0.5848    0.0000 H       1  UNL1        0.0333
     19 H           5.9013   -1.6623    0.0000 H       1  UNL1        0.0308
     20 H           6.3548   -1.0529    0.0000 H       1  UNL1        0.0308
     21 H           3.4030    2.1798    0.0000 H       1  UNL1        0.0570
     22 H           4.9498   -2.1798    0.0000 H       1  UNL1        0.0569
     23 H           2.0000    1.3698    0.0000 H       1  UNL1        0.0569
     24 H           1.9264    0.1674    0.0000 H       1  UNL1        0.0310
     25 H           2.3249   -0.5228    0.0000 H       1  UNL1        0.0310
     26 H           4.0135   -0.3326    0.0000 H       1  UNL1        0.0310
     27 H           2.9646   -0.8786    0.0000 H       1  UNL1        0.0310
     28 H           3.5255   -1.7981    0.0000 H       1  UNL1        0.0569
@<TRIPOS>BOND
     1     1     2    1
     2     1     3    1
     3     2     3    1
     4     2     4    1
     5     2    13    1
     6     3     5    1
     7     3    14    1
     8     4     6    1
     9     4    15    1
    10     4    16    1
    11     5     7    1
    12     5    17    1
    13     5    18    1
    14     6     8    1
    15     6    19    1
    16     6    20    1
    17     7     9    2
    18     7    21    1
    19     8    12    2
    20     8    22    1
    21     9    10    1
    22     9    23    1
    23    10    11    1
    24    10    24    1
    25    10    25    1
    26    11    12    1
    27    11    26    1
    28    11    27    1
    29    12    28    1
