@<TRIPOS>MOLECULE
IMPHY001569
 35 36 0 0 0
SMALL
GASTEIGER

@<TRIPOS>ATOM
      1 O           9.2059   -0.9856    0.0000 O.3     1  UNL1       -0.3806
      2 O           8.1240    1.3574    0.0000 O.2     1  UNL1       -0.2890
      3 O           2.5369    0.6022    0.0000 O.3     1  UNL1       -0.3947
      4 C           8.3969   -0.3978    0.0000 C.3     1  UNL1        0.1293
      5 C           7.8133   -1.2025    0.0000 C.3     1  UNL1        0.0090
      6 C           6.8671   -0.8978    0.0000 C.ar    1  UNL1       -0.0331
      7 C           6.8671    0.1022    0.0000 C.ar    1  UNL1        0.0268
      8 C           7.8133    0.4069    0.0000 C.2     1  UNL1        0.1950
      9 C           6.0010    0.6022    0.0000 C.ar    1  UNL1       -0.0361
     10 C           5.1350    0.1022    0.0000 C.ar    1  UNL1       -0.0387
     11 C           6.0010   -1.3978    0.0000 C.ar    1  UNL1       -0.0546
     12 C           5.1350   -0.8978    0.0000 C.ar    1  UNL1       -0.0467
     13 C           9.2059    0.1900    0.0000 C.3     1  UNL1       -0.0284
     14 C           4.2690    0.6022    0.0000 C.3     1  UNL1       -0.0039
     15 C           6.0010    1.6022    0.0000 C.3     1  UNL1       -0.0388
     16 C           4.2690   -1.3978    0.0000 C.3     1  UNL1       -0.0394
     17 C           3.4030    0.1022    0.0000 C.3     1  UNL1        0.0482
     18 H           7.5622   -1.7694    0.0000 H       1  UNL1        0.0345
     19 H           8.3507   -1.5118    0.0000 H       1  UNL1        0.0345
     20 H           6.0010   -2.0178    0.0000 H       1  UNL1        0.0623
     21 H           9.5703   -0.3116    0.0000 H       1  UNL1        0.0262
     22 H           9.7075    0.5544    0.0000 H       1  UNL1        0.0262
     23 H           8.8415    0.6916    0.0000 H       1  UNL1        0.0262
     24 H           4.6675    1.0771    0.0000 H       1  UNL1        0.0335
     25 H           3.8705    1.0771    0.0000 H       1  UNL1        0.0335
     26 H           6.6210    1.6022    0.0000 H       1  UNL1        0.0278
     27 H           6.0010    2.2222    0.0000 H       1  UNL1        0.0278
     28 H           5.3810    1.6022    0.0000 H       1  UNL1        0.0278
     29 H           9.1411   -1.6022    0.0000 H       1  UNL1        0.2108
     30 H           3.9590   -0.8609    0.0000 H       1  UNL1        0.0278
     31 H           3.7320   -1.7078    0.0000 H       1  UNL1        0.0278
     32 H           4.5790   -1.9347    0.0000 H       1  UNL1        0.0278
     33 H           3.0044   -0.3728    0.0000 H       1  UNL1        0.0560
     34 H           3.8015   -0.3728    0.0000 H       1  UNL1        0.0560
     35 H           2.0000    0.2922    0.0000 H       1  UNL1        0.2094
@<TRIPOS>BOND
     1     1     4    1
     2     1    29    1
     3     2     8    2
     4     3    17    1
     5     3    35    1
     6     4     5    1
     7     4     8    1
     8     4    13    1
     9     5     6    1
    10     5    18    1
    11     5    19    1
    12     6     7   ar
    13     6    11   ar
    14     7     8    1
    15     7     9   ar
    16     9    10   ar
    17     9    15    1
    18    10    12   ar
    19    10    14    1
    20    11    12   ar
    21    11    20    1
    22    12    16    1
    23    13    21    1
    24    13    22    1
    25    13    23    1
    26    14    17    1
    27    14    24    1
    28    14    25    1
    29    15    26    1
    30    15    27    1
    31    15    28    1
    32    16    30    1
    33    16    31    1
    34    16    32    1
    35    17    33    1
    36    17    34    1
