@<TRIPOS>MOLECULE
IMPHY012710
 39 44 0 0 0
SMALL
GASTEIGER

@<TRIPOS>ATOM
      1 O           4.9820    2.8770    0.0000 O.3     1  UNL1       -0.4562
      2 O           4.5732   -1.9282    0.0000 O.3     1  UNL1       -0.4520
      3 O           3.1278   -2.7776    0.0000 O.3     1  UNL1       -0.4526
      4 O           2.0520    1.8022    0.0000 O.3     1  UNL1       -0.5057
      5 O           8.1944    0.1069    0.0000 O.3     1  UNL1       -0.4526
      6 O           8.1944   -1.5026    0.0000 O.3     1  UNL1       -0.4526
      7 O           6.3656    1.7630    0.0000 O.2     1  UNL1       -0.2449
      8 C           4.6501    0.3022    0.0000 C.ar    1  UNL1        0.0081
      9 C           3.7841   -0.1978    0.0000 C.ar    1  UNL1        0.0396
     10 C           4.6501    1.3022    0.0000 C.ar    1  UNL1        0.0773
     11 C           3.7841    1.8022    0.0000 C.ar    1  UNL1        0.0463
     12 C           2.9180    0.3022    0.0000 C.ar    1  UNL1        0.0283
     13 C           2.9180    1.3022    0.0000 C.ar    1  UNL1        0.1319
     14 C           3.8001   -1.2393    0.0000 C.ar    1  UNL1        0.1746
     15 C           5.5161   -0.1978    0.0000 C.ar    1  UNL1       -0.0127
     16 C           3.9933    2.7740    0.0000 C.3     1  UNL1        0.1220
     17 C           2.9021   -1.7671    0.0000 C.ar    1  UNL1        0.1669
     18 C           5.3871    1.9693    0.0000 C.2     1  UNL1        0.3406
     19 C           2.0080   -0.2047    0.0000 C.ar    1  UNL1       -0.0468
     20 C           2.0000   -1.2463    0.0000 C.ar    1  UNL1       -0.0154
     21 C           6.3821    0.3022    0.0000 C.ar    1  UNL1       -0.0084
     22 C           5.5161   -1.1978    0.0000 C.ar    1  UNL1       -0.0503
     23 C           7.2482   -0.1978    0.0000 C.ar    1  UNL1        0.1668
     24 C           4.1585   -2.8770    0.0000 C.3     1  UNL1        0.2333
     25 C           7.2482   -1.1978    0.0000 C.ar    1  UNL1        0.1663
     26 C           6.3821   -1.6978    0.0000 C.ar    1  UNL1       -0.0156
     27 C           8.7780   -0.6978    0.0000 C.3     1  UNL1        0.2332
     28 H           3.9942    3.3940    0.0000 H       1  UNL1        0.0750
     29 H           3.3768    2.8401    0.0000 H       1  UNL1        0.0750
     30 H           1.4747    0.1115    0.0000 H       1  UNL1        0.0626
     31 H           1.4619   -1.5542    0.0000 H       1  UNL1        0.0655
     32 H           6.3821    0.9222    0.0000 H       1  UNL1        0.0661
     33 H           4.9792   -1.5078    0.0000 H       1  UNL1        0.0625
     34 H           4.0344   -3.4845    0.0000 H       1  UNL1        0.1166
     35 H           4.7495   -3.0643    0.0000 H       1  UNL1        0.1166
     36 H           6.3821   -2.3178    0.0000 H       1  UNL1        0.0655
     37 H           2.0520    2.4222    0.0000 H       1  UNL1        0.2922
     38 H           9.2389   -1.1126    0.0000 H       1  UNL1        0.1166
     39 H           9.2389   -0.2831    0.0000 H       1  UNL1        0.1166
@<TRIPOS>BOND
     1     1    16    1
     2     1    18    1
     3     2    14    1
     4     2    24    1
     5     3    17    1
     6     3    24    1
     7     4    13    1
     8     4    37    1
     9     5    23    1
    10     5    27    1
    11     6    25    1
    12     6    27    1
    13     7    18    2
    14     8     9   ar
    15     8    10   ar
    16     8    15    1
    17     9    12   ar
    18     9    14   ar
    19    10    11   ar
    20    10    18    1
    21    11    13   ar
    22    11    16    1
    23    12    13   ar
    24    12    19   ar
    25    14    17   ar
    26    15    21   ar
    27    15    22   ar
    28    16    28    1
    29    16    29    1
    30    17    20   ar
    31    19    20   ar
    32    19    30    1
    33    20    31    1
    34    21    23   ar
    35    21    32    1
    36    22    26   ar
    37    22    33    1
    38    23    25   ar
    39    24    34    1
    40    24    35    1
    41    25    26   ar
    42    26    36    1
    43    27    38    1
    44    27    39    1
