@<TRIPOS>MOLECULE
IMPHY000141
 42 45 0 0 0
SMALL
GASTEIGER

@<TRIPOS>ATOM
      1 O           8.1821   -1.9746    0.0000 O.3     1  UNL1       -0.3877
      2 O           2.0000   -0.4537    0.0000 O.3     1  UNL1       -0.4914
      3 O           2.0000    1.5946    0.0000 O.3     1  UNL1       -0.4914
      4 N           6.3961    1.0705    0.0000 N.3     1  UNL1       -0.2939
      5 C           5.5301   -0.4295    0.0000 C.3     1  UNL1        0.0310
      6 C           6.3961    0.0705    0.0000 C.3     1  UNL1        0.0265
      7 C           5.4167    0.1741    0.0000 C.3     1  UNL1       -0.0256
      8 C           5.8167    0.8669    0.0000 C.3     1  UNL1        0.0007
      9 C           7.3062   -0.4364    0.0000 C.3     1  UNL1       -0.0065
     10 C           4.6641    0.0705    0.0000 C.ar    1  UNL1       -0.0278
     11 C           5.5301    1.5705    0.0000 C.3     1  UNL1        0.0248
     12 C           5.5141   -1.4710    0.0000 C.2     1  UNL1       -0.0736
     13 C           4.6641    1.0705    0.0000 C.ar    1  UNL1       -0.0256
     14 C           7.3142   -1.4780    0.0000 C.3     1  UNL1        0.0748
     15 C           6.4121   -1.9988    0.0000 C.2     1  UNL1       -0.0589
     16 C           3.7702   -0.4642    0.0000 C.ar    1  UNL1       -0.0119
     17 C           3.7702    1.6051    0.0000 C.ar    1  UNL1       -0.0116
     18 C           2.8641    0.0497    0.0000 C.ar    1  UNL1        0.1618
     19 C           2.8641    1.0913    0.0000 C.ar    1  UNL1        0.1618
     20 C           2.0038   -1.4537    0.0000 C.3     1  UNL1        0.0790
     21 C           2.0038    2.5946    0.0000 C.3     1  UNL1        0.0790
     22 H           7.1323    0.4955    0.0000 H       1  UNL1        0.0475
     23 H           4.9896    0.6235    0.0000 H       1  UNL1        0.0290
     24 H           4.8648   -0.1083    0.0000 H       1  UNL1        0.0290
     25 H           5.7853    1.4861    0.0000 H       1  UNL1        0.0427
     26 H           5.2140    1.0121    0.0000 H       1  UNL1        0.0427
     27 H           7.9178   -0.5377    0.0000 H       1  UNL1        0.0309
     28 H           7.5107    0.1489    0.0000 H       1  UNL1        0.0309
     29 H           5.9286    2.0454    0.0000 H       1  UNL1        0.0476
     30 H           5.1316    2.0454    0.0000 H       1  UNL1        0.0476
     31 H           4.9736   -1.7748    0.0000 H       1  UNL1        0.0579
     32 H           7.3154   -2.0980    0.0000 H       1  UNL1        0.0638
     33 H           6.4097   -2.6188    0.0000 H       1  UNL1        0.0595
     34 H           3.7773   -1.0841    0.0000 H       1  UNL1        0.0658
     35 H           3.7773    2.2251    0.0000 H       1  UNL1        0.0658
     36 H           8.1845   -2.5946    0.0000 H       1  UNL1        0.2102
     37 H           1.3839   -1.4560    0.0000 H       1  UNL1        0.0660
     38 H           2.0062   -2.0737    0.0000 H       1  UNL1        0.0660
     39 H           2.6238   -1.4513    0.0000 H       1  UNL1        0.0660
     40 H           2.6238    2.5922    0.0000 H       1  UNL1        0.0660
     41 H           2.0062    3.2146    0.0000 H       1  UNL1        0.0660
     42 H           1.3839    2.5970    0.0000 H       1  UNL1        0.0660
@<TRIPOS>BOND
     1    14     1    1
     2     1    36    1
     3     2    18    1
     4     2    20    1
     5     3    19    1
     6     3    21    1
     7     4     6    1
     8     4     8    1
     9     4    11    1
    10     5     6    1
    11     5     7    1
    12     5    10    1
    13     5    12    1
    14     6     9    1
    15     6    22    1
    16     7     8    1
    17     7    23    1
    18     7    24    1
    19     8    25    1
    20     8    26    1
    21     9    14    1
    22     9    27    1
    23     9    28    1
    24    10    13   ar
    25    10    16   ar
    26    11    13    1
    27    11    29    1
    28    11    30    1
    29    12    15    2
    30    12    31    1
    31    13    17   ar
    32    14    15    1
    33    14    32    1
    34    15    33    1
    35    16    18   ar
    36    16    34    1
    37    17    19   ar
    38    17    35    1
    39    18    19   ar
    40    20    37    1
    41    20    38    1
    42    20    39    1
    43    21    40    1
    44    21    41    1
    45    21    42    1
