@<TRIPOS>MOLECULE
IMPHY005315
 36 38 0 0 0
SMALL
GASTEIGER

@<TRIPOS>ATOM
      1 O           9.0641    0.5275    0.0000 O.3     1  UNL1       -0.3753
      2 O           6.4144    2.0346    0.0000 O.3     1  UNL1       -0.5057
      3 O           6.4144   -2.0346    0.0000 O.3     1  UNL1       -0.5060
      4 O           4.6660    2.0000    0.0000 O.2     1  UNL1       -0.2865
      5 O           4.6660   -2.0000    0.0000 O.2     1  UNL1       -0.2865
      6 C           5.5321    0.5000    0.0000 C.ar    1  UNL1        0.0783
      7 C           5.5321   -0.5000    0.0000 C.ar    1  UNL1        0.0779
      8 C           7.3321    0.5208    0.0000 C.ar    1  UNL1        0.0237
      9 C           3.8000    0.5000    0.0000 C.ar    1  UNL1        0.0332
     10 C           6.4260    1.0347    0.0000 C.ar    1  UNL1        0.1339
     11 C           3.8000   -0.5000    0.0000 C.ar    1  UNL1        0.0332
     12 C           4.6660    1.0000    0.0000 C.2     1  UNL1        0.1981
     13 C           4.6660   -1.0000    0.0000 C.2     1  UNL1        0.1981
     14 C           6.4260   -1.0347    0.0000 C.ar    1  UNL1        0.1289
     15 C           7.3321   -0.5208    0.0000 C.ar    1  UNL1       -0.0106
     16 C           8.1962    1.0241    0.0000 C.3     1  UNL1        0.0762
     17 C           2.9061    1.0347    0.0000 C.ar    1  UNL1       -0.0502
     18 C           2.9061   -1.0347    0.0000 C.ar    1  UNL1       -0.0502
     19 C           2.0000    0.5208    0.0000 C.ar    1  UNL1       -0.0610
     20 C           2.0000   -0.5208    0.0000 C.ar    1  UNL1       -0.0610
     21 C           9.9282    1.0308    0.0000 C.3     1  UNL1        0.0453
     22 C          10.7961    0.5342    0.0000 C.3     1  UNL1       -0.0416
     23 H           7.8678   -0.8329    0.0000 H       1  UNL1        0.0659
     24 H           8.5929    1.5006    0.0000 H       1  UNL1        0.0611
     25 H           7.7958    1.4976    0.0000 H       1  UNL1        0.0611
     26 H           2.9132    1.6546    0.0000 H       1  UNL1        0.0625
     27 H           2.9132   -1.6546    0.0000 H       1  UNL1        0.0625
     28 H           1.4643    0.8329    0.0000 H       1  UNL1        0.0618
     29 H           1.4643   -0.8329    0.0000 H       1  UNL1        0.0618
     30 H           6.9478    2.3508    0.0000 H       1  UNL1        0.2922
     31 H          10.3249    1.5073    0.0000 H       1  UNL1        0.0557
     32 H           9.5278    1.5042    0.0000 H       1  UNL1        0.0557
     33 H           6.9478   -2.3508    0.0000 H       1  UNL1        0.2922
     34 H          10.4882   -0.0040    0.0000 H       1  UNL1        0.0252
     35 H          11.3343    0.2262    0.0000 H       1  UNL1        0.0252
     36 H          11.1041    1.0723    0.0000 H       1  UNL1        0.0252
@<TRIPOS>BOND
     1     1    16    1
     2     1    21    1
     3     2    10    1
     4     2    30    1
     5     3    14    1
     6     3    33    1
     7     4    12    2
     8     5    13    2
     9     6     7   ar
    10     6    10   ar
    11     6    12    1
    12     7    13    1
    13     7    14   ar
    14     8    10   ar
    15     8    15   ar
    16     8    16    1
    17     9    11   ar
    18     9    12    1
    19     9    17   ar
    20    11    13    1
    21    11    18   ar
    22    14    15   ar
    23    15    23    1
    24    16    24    1
    25    16    25    1
    26    17    19   ar
    27    17    26    1
    28    18    20   ar
    29    18    27    1
    30    19    20   ar
    31    19    28    1
    32    20    29    1
    33    21    22    1
    34    21    31    1
    35    21    32    1
    36    22    34    1
    37    22    35    1
    38    22    36    1
