@<TRIPOS>MOLECULE
IMPHY002274
 52 55 0 0 0
SMALL
GASTEIGER

@<TRIPOS>ATOM
      1 C           4.3786   -1.1998    0.0000 C.3     1  UNL1       -0.0200
      2 C           4.3947   -2.2413    0.0000 C.3     1  UNL1       -0.0256
      3 C           3.5126   -0.6998    0.0000 C.3     1  UNL1       -0.0292
      4 C           5.2892   -1.7067    0.0000 C.3     1  UNL1       -0.0407
      5 C           3.5126    0.3002    0.0000 C.3     1  UNL1       -0.0258
      6 C           5.2446   -0.6998    0.0000 C.3     1  UNL1       -0.0463
      7 C           3.4966   -2.7691    0.0000 C.3     1  UNL1       -0.0471
      8 C           4.3786    0.8002    0.0000 C.3     1  UNL1       -0.0346
      9 C           2.6026   -1.2067    0.0000 C.3     1  UNL1       -0.0492
     10 C           5.2446    0.3002    0.0000 C.3     1  UNL1       -0.0492
     11 C           2.5946   -2.2483    0.0000 C.3     1  UNL1       -0.0523
     12 C           4.4101   -3.2412    0.0000 C.3     1  UNL1       -0.0590
     13 C           2.6026    0.8070    0.0000 C.3     1  UNL1       -0.0463
     14 C           4.3947    1.8417    0.0000 C.3     1  UNL1       -0.0408
     15 C           2.6466   -0.1998    0.0000 C.3     1  UNL1       -0.0590
     16 C           3.4966    2.3694    0.0000 C.3     1  UNL1       -0.0140
     17 C           2.5946    1.8486    0.0000 C.3     1  UNL1       -0.0437
     18 C           4.0000    3.2335    0.0000 C.3     1  UNL1       -0.0561
     19 C           3.0000    3.2374    0.0000 C.2     1  UNL1       -0.0852
     20 C           2.0000    3.2412    0.0000 C.2     1  UNL1       -0.1021
     21 H           4.2487   -0.2748    0.0000 H       1  UNL1        0.0312
     22 H           5.6949   -2.1755    0.0000 H       1  UNL1        0.0276
     23 H           5.6803   -1.2256    0.0000 H       1  UNL1        0.0276
     24 H           5.4567   -1.2824    0.0000 H       1  UNL1        0.0271
     25 H           5.8552   -0.5922    0.0000 H       1  UNL1        0.0271
     26 H           3.0993   -3.2451    0.0000 H       1  UNL1        0.0271
     27 H           3.8976   -3.2420    0.0000 H       1  UNL1        0.0271
     28 H           5.1180    1.2195    0.0000 H       1  UNL1        0.0306
     29 H           2.3980   -0.6214    0.0000 H       1  UNL1        0.0268
     30 H           1.9910   -1.3081    0.0000 H       1  UNL1        0.0268
     31 H           5.8552    0.1925    0.0000 H       1  UNL1        0.0268
     32 H           5.4567    0.8828    0.0000 H       1  UNL1        0.0268
     33 H           1.9846   -2.1375    0.0000 H       1  UNL1        0.0266
     34 H           2.3810   -2.8304    0.0000 H       1  UNL1        0.0266
     35 H           3.7902   -3.2508    0.0000 H       1  UNL1        0.0235
     36 H           4.4197   -3.8612    0.0000 H       1  UNL1        0.0235
     37 H           5.0300   -3.2317    0.0000 H       1  UNL1        0.0235
     38 H           1.9910    0.9084    0.0000 H       1  UNL1        0.0271
     39 H           2.3980    0.2217    0.0000 H       1  UNL1        0.0271
     40 H           5.0038    1.7262    0.0000 H       1  UNL1        0.0276
     41 H           4.6127    2.4221    0.0000 H       1  UNL1        0.0276
     42 H           2.3366    0.3371    0.0000 H       1  UNL1        0.0235
     43 H           2.1096   -0.5098    0.0000 H       1  UNL1        0.0235
     44 H           2.9566   -0.7368    0.0000 H       1  UNL1        0.0235
     45 H           2.3810    2.4307    0.0000 H       1  UNL1        0.0274
     46 H           1.9846    1.7378    0.0000 H       1  UNL1        0.0274
     47 H           4.5357    2.9214    0.0000 H       1  UNL1        0.0238
     48 H           4.3120    3.7692    0.0000 H       1  UNL1        0.0238
     49 H           3.4642    3.5456    0.0000 H       1  UNL1        0.0238
     50 H           3.3121    3.7731    0.0000 H       1  UNL1        0.0572
     51 H           1.6921    3.7794    0.0000 H       1  UNL1        0.0532
     52 H           1.6879    2.7055    0.0000 H       1  UNL1        0.0532
@<TRIPOS>BOND
     1     1     2    1
     2     1     3    1
     3     1     4    1
     4     1     6    1
     5     2     4    1
     6     2     7    1
     7     2    12    1
     8     3     5    1
     9     3     9    1
    10     3    21    1
    11     4    22    1
    12     4    23    1
    13     5     8    1
    14     5    13    1
    15     5    15    1
    16     6    10    1
    17     6    24    1
    18     6    25    1
    19     7    11    1
    20     7    26    1
    21     7    27    1
    22     8    10    1
    23     8    14    1
    24     8    28    1
    25     9    11    1
    26     9    29    1
    27     9    30    1
    28    10    31    1
    29    10    32    1
    30    11    33    1
    31    11    34    1
    32    12    35    1
    33    12    36    1
    34    12    37    1
    35    13    17    1
    36    13    38    1
    37    13    39    1
    38    14    16    1
    39    14    40    1
    40    14    41    1
    41    15    42    1
    42    15    43    1
    43    15    44    1
    44    16    17    1
    45    16    18    1
    46    16    19    1
    47    17    45    1
    48    17    46    1
    49    18    47    1
    50    18    48    1
    51    18    49    1
    52    19    20    2
    53    19    50    1
    54    20    51    1
    55    20    52    1
