@<TRIPOS>MOLECULE
IMPHY017153
 27 28 0 0 0
SMALL
GASTEIGER

@<TRIPOS>ATOM
      1 C           3.7320   -0.5000    0.0000 C.ar    1  UNL1       -0.0145
      2 C           3.7320    0.5000    0.0000 C.ar    1  UNL1       -0.0147
      3 C           2.8660   -1.0000    0.0000 C.ar    1  UNL1       -0.0427
      4 C           2.8660    1.0000    0.0000 C.ar    1  UNL1       -0.0427
      5 C           4.6260   -1.0347    0.0000 C.ar    1  UNL1       -0.0509
      6 C           5.5321   -0.5208    0.0000 C.ar    1  UNL1       -0.0498
      7 C           4.6260    1.0347    0.0000 C.ar    1  UNL1       -0.0535
      8 C           2.0000   -0.5000    0.0000 C.ar    1  UNL1       -0.0580
      9 C           2.0000    0.5000    0.0000 C.ar    1  UNL1       -0.0580
     10 C           5.5321    0.5208    0.0000 C.ar    1  UNL1       -0.0582
     11 C           2.8660   -2.0000    0.0000 C.3     1  UNL1       -0.0391
     12 C           2.8660    2.0000    0.0000 C.3     1  UNL1       -0.0391
     13 C           6.3961   -1.0241    0.0000 C.3     1  UNL1       -0.0397
     14 H           4.6188   -1.6546    0.0000 H       1  UNL1        0.0626
     15 H           4.6188    1.6546    0.0000 H       1  UNL1        0.0624
     16 H           1.4631   -0.8100    0.0000 H       1  UNL1        0.0620
     17 H           1.4631    0.8100    0.0000 H       1  UNL1        0.0620
     18 H           6.0678    0.8329    0.0000 H       1  UNL1        0.0620
     19 H           2.2460   -2.0000    0.0000 H       1  UNL1        0.0278
     20 H           2.8660   -2.6200    0.0000 H       1  UNL1        0.0278
     21 H           3.4860   -2.0000    0.0000 H       1  UNL1        0.0278
     22 H           3.4860    2.0000    0.0000 H       1  UNL1        0.0278
     23 H           2.8660    2.6200    0.0000 H       1  UNL1        0.0278
     24 H           2.2460    2.0000    0.0000 H       1  UNL1        0.0278
     25 H           6.0841   -1.5599    0.0000 H       1  UNL1        0.0278
     26 H           6.9319   -1.3362    0.0000 H       1  UNL1        0.0278
     27 H           6.7082   -0.4884    0.0000 H       1  UNL1        0.0278
@<TRIPOS>BOND
     1     1     2   ar
     2     1     3   ar
     3     1     5   ar
     4     2     4   ar
     5     2     7   ar
     6     3     8   ar
     7     3    11    1
     8     4     9   ar
     9     4    12    1
    10     5     6   ar
    11     5    14    1
    12     6    10   ar
    13     6    13    1
    14     7    10   ar
    15     7    15    1
    16     8     9   ar
    17     8    16    1
    18     9    17    1
    19    10    18    1
    20    11    19    1
    21    11    20    1
    22    11    21    1
    23    12    22    1
    24    12    23    1
    25    12    24    1
    26    13    25    1
    27    13    26    1
    28    13    27    1
