@<TRIPOS>MOLECULE
IMPHY017412
 42 41 0 0 0
SMALL
GASTEIGER

@<TRIPOS>ATOM
      1 O           3.7320    1.1900    0.0000 O.3     1  UNL1       -0.3480
      2 O           4.5981   -0.3100    0.0000 O.3     1  UNL1       -0.3480
      3 C           7.1962    1.1900    0.0000 C.3     1  UNL1       -0.0284
      4 C           6.3301    0.6900    0.0000 C.2     1  UNL1       -0.0715
      5 C           8.0622    0.6900    0.0000 C.3     1  UNL1       -0.0308
      6 C           4.5981    0.6900    0.0000 C.3     1  UNL1        0.1786
      7 C           5.4641    1.1900    0.0000 C.2     1  UNL1       -0.0298
      8 C           8.9282    1.1900    0.0000 C.2     1  UNL1       -0.0850
      9 C           6.3301   -0.3100    0.0000 C.3     1  UNL1       -0.0436
     10 C           9.7942    0.6900    0.0000 C.2     1  UNL1       -0.0796
     11 C           2.8660    0.6900    0.0000 C.3     1  UNL1        0.0482
     12 C           3.7320   -0.8100    0.0000 C.3     1  UNL1        0.0482
     13 C          10.6603    1.1900    0.0000 C.3     1  UNL1       -0.0440
     14 C           9.7942   -0.3100    0.0000 C.3     1  UNL1       -0.0440
     15 C           2.0000    1.1900    0.0000 C.3     1  UNL1       -0.0415
     16 C           3.7320   -1.8100    0.0000 C.3     1  UNL1       -0.0415
     17 H           7.5947    1.6650    0.0000 H       1  UNL1        0.0313
     18 H           6.7976    1.6650    0.0000 H       1  UNL1        0.0313
     19 H           7.6636    0.2151    0.0000 H       1  UNL1        0.0310
     20 H           8.4607    0.2151    0.0000 H       1  UNL1        0.0310
     21 H           5.1350    0.3800    0.0000 H       1  UNL1        0.0958
     22 H           5.4641    1.8100    0.0000 H       1  UNL1        0.0621
     23 H           8.9282    1.8100    0.0000 H       1  UNL1        0.0572
     24 H           5.7101   -0.3100    0.0000 H       1  UNL1        0.0274
     25 H           6.3301   -0.9300    0.0000 H       1  UNL1        0.0274
     26 H           6.9501   -0.3100    0.0000 H       1  UNL1        0.0274
     27 H           2.4675    0.2151    0.0000 H       1  UNL1        0.0558
     28 H           3.2646    0.2151    0.0000 H       1  UNL1        0.0558
     29 H           3.5200   -0.2274    0.0000 H       1  UNL1        0.0558
     30 H           3.1215   -0.9177    0.0000 H       1  UNL1        0.0558
     31 H          10.9703    0.6531    0.0000 H       1  UNL1        0.0274
     32 H          11.1972    1.5000    0.0000 H       1  UNL1        0.0274
     33 H          10.3503    1.7269    0.0000 H       1  UNL1        0.0274
     34 H           9.1742   -0.3100    0.0000 H       1  UNL1        0.0274
     35 H           9.7942   -0.9300    0.0000 H       1  UNL1        0.0274
     36 H          10.4142   -0.3100    0.0000 H       1  UNL1        0.0274
     37 H           2.3100    1.7269    0.0000 H       1  UNL1        0.0252
     38 H           1.4631    1.5000    0.0000 H       1  UNL1        0.0252
     39 H           1.6900    0.6531    0.0000 H       1  UNL1        0.0252
     40 H           3.1120   -1.8100    0.0000 H       1  UNL1        0.0252
     41 H           3.7320   -2.4300    0.0000 H       1  UNL1        0.0252
     42 H           4.3520   -1.8100    0.0000 H       1  UNL1        0.0252
@<TRIPOS>BOND
     1     1     6    1
     2     1    11    1
     3     2     6    1
     4     2    12    1
     5     3     4    1
     6     3     5    1
     7     3    17    1
     8     3    18    1
     9     4     7    2
    10     4     9    1
    11     5     8    1
    12     5    19    1
    13     5    20    1
    14     6     7    1
    15     6    21    1
    16     7    22    1
    17     8    10    2
    18     8    23    1
    19     9    24    1
    20     9    25    1
    21     9    26    1
    22    10    13    1
    23    10    14    1
    24    11    15    1
    25    11    27    1
    26    11    28    1
    27    12    16    1
    28    12    29    1
    29    12    30    1
    30    13    31    1
    31    13    32    1
    32    13    33    1
    33    14    34    1
    34    14    35    1
    35    14    36    1
    36    15    37    1
    37    15    38    1
    38    15    39    1
    39    16    40    1
    40    16    41    1
    41    16    42    1
