@<TRIPOS>MOLECULE
IMPHY000529
 25 29 0 0 0
SMALL
GASTEIGER

@<TRIPOS>ATOM
      1 C           3.4562    5.5796    0.0000 C.ar    1  UNL1       -0.0186
      2 C           3.4562    4.5765    0.0000 C.ar    1  UNL1       -0.0013
      3 C           4.3217    6.0791    0.0000 C.ar    1  UNL1        0.0359
      4 C           2.5947    6.0892    0.0000 C.3     1  UNL1        0.0331
      5 C           2.5947    4.0831    0.0000 C.2     1  UNL1       -0.0083
      6 C           4.3217    4.0790    0.0000 C.ar    1  UNL1        0.0399
      7 C           5.1832    5.5796    0.0000 C.ar    1  UNL1        0.1761
      8 C           1.7271    5.5796    0.0000 C.3     1  UNL1        0.0560
      9 C           1.7271    4.5765    0.0000 C.2     1  UNL1       -0.0373
     10 C           5.1832    4.5765    0.0000 C.ar    1  UNL1        0.1764
     11 O           6.1358    5.8890    0.0000 O.3     1  UNL1       -0.4346
     12 C           0.8595    6.0771    0.0000 C.3     1  UNL1        0.1864
     13 C           0.8635    4.0750    0.0000 C.3     1  UNL1        0.0485
     14 O           6.1358    4.2671    0.0000 O.3     1  UNL1       -0.4346
     15 C           6.7243    5.0801    0.0000 C.3     1  UNL1        0.4294
     16 O           0.8554    7.0782    0.0000 O.3     1  UNL1       -0.2201
     17 C           0.8656    3.0760    0.0000 C.ar    1  UNL1       -0.0149
     18 C           1.7392    2.5744    0.0000 C.ar    1  UNL1        0.0362
     19 C           0.0000    2.5704    0.0000 C.ar    1  UNL1       -0.0006
     20 C           1.7392    1.5754    0.0000 C.ar    1  UNL1        0.1761
     21 C           0.0040    1.5714    0.0000 C.ar    1  UNL1        0.0399
     22 C           0.8777    1.0739    0.0000 C.ar    1  UNL1        0.1764
     23 O           2.4834    0.9100    0.0000 O.3     1  UNL1       -0.4346
     24 O           1.0880    0.0991    0.0000 O.3     1  UNL1       -0.4346
     25 C           2.0810    0.0000    0.0000 C.3     1  UNL1        0.4294
@<TRIPOS>BOND
     1     1     2   ar
     2     1     3   ar
     3     1     4    1
     4     2     5    1
     5     2     6   ar
     6     3     7   ar
     7     4     8    1
     8     5     9    2
     9     6    10   ar
    10     7    10   ar
    11     7    11    1
    12     8     9    1
    13     8    12    1
    14     9    13    1
    15    10    14    1
    16    11    15    1
    17    12    16    1
    18    13    17    1
    19    14    15    1
    20    17    18   ar
    21    17    19   ar
    22    18    20   ar
    23    19    21   ar
    24    20    22   ar
    25    20    23    1
    26    21    22   ar
    27    22    24    1
    28    23    25    1
    29    24    25    1
