@<TRIPOS>MOLECULE
IMPHY007617
 73 77 0 0 0
SMALL
GASTEIGER

@<TRIPOS>ATOM
      1 O           6.8671    0.9654    0.0000 O.3     1  UNL1       -0.3080
      2 O           5.1350    0.9654    0.0000 O.3     1  UNL1       -0.3394
      3 O           6.0010    2.4654    0.0000 O.2     1  UNL1       -0.4697
      4 O           8.5991    2.9654    0.0000 O.3     1  UNL1       -0.3827
      5 O           6.8671   -1.0346    0.0000 O.3     1  UNL1       -0.4499
      6 O           7.7490    5.5346    0.0000 O.3     1  UNL1       -0.4611
      7 O           5.1350   -2.0346    0.0000 O.3     1  UNL1       -0.3853
      8 O           3.4030   -1.0346    0.0000 O.3     1  UNL1       -0.3864
      9 O           2.5369    0.4654    0.0000 O.3     1  UNL1       -0.3924
     10 O           5.9793    5.4968    0.0000 O.2     1  UNL1       -0.2451
     11 O           6.0010   -2.5346    0.0000 O.2     1  UNL1       -0.2448
     12 O           8.5991   -1.0346    0.0000 O.3     1  UNL1       -0.5058
     13 O          10.3312   -4.0346    0.0000 O.3     1  UNL1       -0.5066
     14 O           4.2690   -3.5346    0.0000 O.3     1  UNL1       -0.5067
     15 C           7.7331    3.4654    0.0000 C.3     1  UNL1        0.1154
     16 C           7.7331    2.4654    0.0000 C.3     1  UNL1        0.0728
     17 C           6.8671    1.9654    0.0000 C.3     1  UNL1        0.2127
     18 C           6.0010    0.4654    0.0000 C.3     1  UNL1        0.2029
     19 C           6.0010   -0.5346    0.0000 C.3     1  UNL1        0.1821
     20 C           5.1350   -1.0346    0.0000 C.3     1  UNL1        0.1251
     21 C           8.6431    3.9722    0.0000 C.3     1  UNL1        0.0157
     22 C           4.2690   -0.5346    0.0000 C.3     1  UNL1        0.1130
     23 C           4.2690    0.4654    0.0000 C.3     1  UNL1        0.1131
     24 C           6.8671    3.9654    0.0000 C.2     1  UNL1        0.1028
     25 C           8.6511    5.0138    0.0000 C.3     1  UNL1        0.0957
     26 C           8.5991    1.9654    0.0000 C.2     1  UNL1       -0.0792
     27 C           6.0010    3.4654    0.0000 C.2     1  UNL1        0.1006
     28 C           3.4030    0.9654    0.0000 C.3     1  UNL1        0.0730
     29 C           6.8510    5.0069    0.0000 C.2     1  UNL1        0.3409
     30 C           8.5991    0.9654    0.0000 C.2     1  UNL1       -0.1021
     31 C           6.8671   -2.0346    0.0000 C.2     1  UNL1        0.3438
     32 C           7.7331   -2.5346    0.0000 C.ar    1  UNL1        0.1082
     33 C           7.7331   -3.5346    0.0000 C.ar    1  UNL1        0.0032
     34 C           8.5991   -2.0346    0.0000 C.ar    1  UNL1        0.1349
     35 C           8.5991   -4.0346    0.0000 C.ar    1  UNL1       -0.0114
     36 C           6.8671   -4.0346    0.0000 C.ar    1  UNL1       -0.0134
     37 C           9.4651   -2.5346    0.0000 C.ar    1  UNL1        0.0222
     38 C           9.4651   -3.5346    0.0000 C.ar    1  UNL1        0.1209
     39 C           6.0010   -3.5346    0.0000 C.ar    1  UNL1       -0.0124
     40 C           6.8671   -5.0346    0.0000 C.ar    1  UNL1       -0.0538
     41 C           5.1350   -4.0346    0.0000 C.ar    1  UNL1        0.1174
     42 C           6.0010   -5.5346    0.0000 C.ar    1  UNL1       -0.0577
     43 C           5.1350   -5.0346    0.0000 C.ar    1  UNL1       -0.0201
     44 H           7.7331    1.8454    0.0000 H       1  UNL1        0.0436
     45 H           6.3301    1.6554    0.0000 H       1  UNL1        0.1063
     46 H           6.0010   -1.1546    0.0000 H       1  UNL1        0.0813
     47 H           6.0010    1.0854    0.0000 H       1  UNL1        0.0951
     48 H           4.5981   -1.3446    0.0000 H       1  UNL1        0.0659
     49 H           8.8476    3.3869    0.0000 H       1  UNL1        0.0329
     50 H           9.2547    4.0736    0.0000 H       1  UNL1        0.0329
     51 H           3.7320   -0.2246    0.0000 H       1  UNL1        0.0647
     52 H           4.2690    1.0854    0.0000 H       1  UNL1        0.0647
     53 H           9.2611    4.9030    0.0000 H       1  UNL1        0.0698
     54 H           8.8647    5.5959    0.0000 H       1  UNL1        0.0698
     55 H           9.1360    2.2754    0.0000 H       1  UNL1        0.0572
     56 H           5.4641    3.7754    0.0000 H       1  UNL1        0.1030
     57 H           3.8015    1.4403    0.0000 H       1  UNL1        0.0584
     58 H           3.0044    1.4403    0.0000 H       1  UNL1        0.0584
     59 H           9.1360    3.2754    0.0000 H       1  UNL1        0.2107
     60 H           4.5981   -2.3446    0.0000 H       1  UNL1        0.2101
     61 H           3.4030   -1.6546    0.0000 H       1  UNL1        0.2100
     62 H           8.0622    0.6554    0.0000 H       1  UNL1        0.0532
     63 H           9.1360    0.6554    0.0000 H       1  UNL1        0.0532
     64 H           2.0000    0.7754    0.0000 H       1  UNL1        0.2095
     65 H           8.5991   -4.6546    0.0000 H       1  UNL1        0.0660
     66 H          10.0021   -2.2246    0.0000 H       1  UNL1        0.0691
     67 H           6.0010   -2.9146    0.0000 H       1  UNL1        0.0660
     68 H           7.4040   -5.3446    0.0000 H       1  UNL1        0.0624
     69 H           9.1360   -0.7246    0.0000 H       1  UNL1        0.2922
     70 H           6.0010   -6.1546    0.0000 H       1  UNL1        0.0619
     71 H          10.3312   -4.6546    0.0000 H       1  UNL1        0.2921
     72 H           4.5981   -5.3446    0.0000 H       1  UNL1        0.0654
     73 H           3.7320   -3.8446    0.0000 H       1  UNL1        0.2921
@<TRIPOS>BOND
     1    17     1    1
     2    18     1    1
     3     2    18    1
     4     2    23    1
     5     3    17    1
     6     3    27    1
     7    15     4    1
     8     4    59    1
     9    19     5    1
    10     5    31    1
    11     6    25    1
    12     6    29    1
    13    20     7    1
    14     7    60    1
    15    22     8    1
    16     8    61    1
    17     9    28    1
    18     9    64    1
    19    10    29    2
    20    11    31    2
    21    12    34    1
    22    12    69    1
    23    13    38    1
    24    13    71    1
    25    14    41    1
    26    14    73    1
    27    15    16    1
    28    15    21    1
    29    15    24    1
    30    16    17    1
    31    16    26    1
    32    16    44    1
    33    17    45    1
    34    18    19    1
    35    18    47    1
    36    19    20    1
    37    19    46    1
    38    20    22    1
    39    20    48    1
    40    21    25    1
    41    21    49    1
    42    21    50    1
    43    22    23    1
    44    22    51    1
    45    23    28    1
    46    23    52    1
    47    24    27    2
    48    24    29    1
    49    25    53    1
    50    25    54    1
    51    26    30    2
    52    26    55    1
    53    27    56    1
    54    28    57    1
    55    28    58    1
    56    30    62    1
    57    30    63    1
    58    31    32    1
    59    32    33   ar
    60    32    34   ar
    61    33    35   ar
    62    33    36    1
    63    34    37   ar
    64    35    38   ar
    65    35    65    1
    66    36    39   ar
    67    36    40   ar
    68    37    38   ar
    69    37    66    1
    70    39    41   ar
    71    39    67    1
    72    40    42   ar
    73    40    68    1
    74    41    43   ar
    75    42    43   ar
    76    42    70    1
    77    43    72    1
