@<TRIPOS>MOLECULE
IMPHY002621
 57 60 0 0 0
SMALL
GASTEIGER

@<TRIPOS>ATOM
      1 O           3.9061   -1.6305    0.0000 O.3     1  UNL1       -0.4832
      2 O           2.1359    0.4283    0.0000 O.3     1  UNL1       -0.3875
      3 O           7.4260   -1.6305    0.0000 O.2     1  UNL1       -0.4618
      4 O           5.6660    1.4042    0.0000 O.3     1  UNL1       -0.5055
      5 O           7.4144    1.4388    0.0000 O.2     1  UNL1       -0.2863
      6 O          11.7884    1.9383    0.0000 O.3     1  UNL1       -0.5065
      7 C           3.0000   -1.1166    0.0000 C.3     1  UNL1        0.1310
      8 C           3.0000   -0.0750    0.0000 C.3     1  UNL1        0.0984
      9 C           3.9061    0.4388    0.0000 C.3     1  UNL1        0.0091
     10 C           4.8000   -0.0958    0.0000 C.ar    1  UNL1        0.0391
     11 C           4.8000   -1.0958    0.0000 C.ar    1  UNL1        0.1316
     12 C           2.0000   -1.1205    0.0000 C.3     1  UNL1       -0.0227
     13 C           2.5033   -1.9846    0.0000 C.3     1  UNL1       -0.0227
     14 C           5.6660    0.4042    0.0000 C.ar    1  UNL1        0.1379
     15 C           5.6660   -1.5958    0.0000 C.ar    1  UNL1        0.0236
     16 C           6.5320   -0.0958    0.0000 C.ar    1  UNL1        0.1063
     17 C           6.5320   -1.0958    0.0000 C.ar    1  UNL1        0.1454
     18 C           7.4260    0.4388    0.0000 C.ar    1  UNL1        0.2037
     19 C           8.3321   -0.0750    0.0000 C.ar    1  UNL1        0.0644
     20 C           8.3321   -1.1166    0.0000 C.ar    1  UNL1        0.1038
     21 C           9.1962    0.4283    0.0000 C.ar    1  UNL1       -0.0108
     22 C          10.0641   -0.0683    0.0000 C.ar    1  UNL1       -0.0469
     23 C          10.9282    0.4350    0.0000 C.ar    1  UNL1       -0.0017
     24 C           9.1923    1.4283    0.0000 C.ar    1  UNL1       -0.0504
     25 C          11.7961   -0.0617    0.0000 C.3     1  UNL1       -0.0058
     26 C          10.9243    1.4350    0.0000 C.ar    1  UNL1        0.1203
     27 C          10.0564    1.9316    0.0000 C.ar    1  UNL1       -0.0193
     28 C          11.8000   -1.0617    0.0000 C.2     1  UNL1       -0.0809
     29 C          12.6679   -1.5583    0.0000 C.2     1  UNL1       -0.0793
     30 C          12.6718   -2.5583    0.0000 C.3     1  UNL1       -0.0440
     31 C          13.5320   -1.0550    0.0000 C.3     1  UNL1       -0.0440
     32 H           3.0036    0.5450    0.0000 H       1  UNL1        0.0636
     33 H           4.3107    0.9086    0.0000 H       1  UNL1        0.0342
     34 H           3.5124    0.9178    0.0000 H       1  UNL1        0.0342
     35 H           1.9976   -0.5005    0.0000 H       1  UNL1        0.0269
     36 H           1.3800   -1.1229    0.0000 H       1  UNL1        0.0269
     37 H           2.0024   -1.7405    0.0000 H       1  UNL1        0.0269
     38 H           1.9652   -1.6767    0.0000 H       1  UNL1        0.0269
     39 H           2.1954   -2.5227    0.0000 H       1  UNL1        0.0269
     40 H           3.0415   -2.2925    0.0000 H       1  UNL1        0.0269
     41 H           5.6660   -2.2158    0.0000 H       1  UNL1        0.0691
     42 H           2.1383    1.0483    0.0000 H       1  UNL1        0.2100
     43 H           5.1291    1.7142    0.0000 H       1  UNL1        0.2922
     44 H           8.8678   -1.4287    0.0000 H       1  UNL1        0.1037
     45 H          10.0665   -0.6883    0.0000 H       1  UNL1        0.0628
     46 H           8.6542    1.7362    0.0000 H       1  UNL1        0.0625
     47 H          12.4071   -0.1670    0.0000 H       1  UNL1        0.0357
     48 H          12.0059    0.5218    0.0000 H       1  UNL1        0.0357
     49 H          10.0540    2.5516    0.0000 H       1  UNL1        0.0654
     50 H          11.2643   -1.3737    0.0000 H       1  UNL1        0.0575
     51 H          11.7860    2.5583    0.0000 H       1  UNL1        0.2921
     52 H          12.0518   -2.5607    0.0000 H       1  UNL1        0.0274
     53 H          13.8441   -1.5907    0.0000 H       1  UNL1        0.0274
     54 H          14.0678   -0.7429    0.0000 H       1  UNL1        0.0274
     55 H          13.2200   -0.5192    0.0000 H       1  UNL1        0.0274
     56 H          12.6742   -3.1783    0.0000 H       1  UNL1        0.0274
     57 H          13.2918   -2.5559    0.0000 H       1  UNL1        0.0274
@<TRIPOS>BOND
     1     1     7    1
     2     1    11    1
     3     2     8    1
     4     2    42    1
     5     3    17   ar
     6     3    20   ar
     7     4    14    1
     8     4    43    1
     9     5    18    2
    10     6    26    1
    11     6    51    1
    12     7     8    1
    13     7    12    1
    14     7    13    1
    15     8     9    1
    16     8    32    1
    17     9    10    1
    18     9    33    1
    19     9    34    1
    20    10    11   ar
    21    10    14   ar
    22    11    15   ar
    23    12    35    1
    24    12    36    1
    25    12    37    1
    26    13    38    1
    27    13    39    1
    28    13    40    1
    29    14    16   ar
    30    15    17   ar
    31    15    41    1
    32    16    17   ar
    33    16    18   ar
    34    18    19   ar
    35    19    20   ar
    36    19    21    1
    37    20    44    1
    38    21    22   ar
    39    21    24   ar
    40    22    23   ar
    41    22    45    1
    42    23    25    1
    43    23    26   ar
    44    24    27   ar
    45    24    46    1
    46    25    28    1
    47    25    47    1
    48    25    48    1
    49    26    27   ar
    50    27    49    1
    51    28    29    2
    52    28    50    1
    53    29    30    1
    54    29    31    1
    55    30    52    1
    56    30    56    1
    57    30    57    1
    58    31    53    1
    59    31    54    1
    60    31    55    1
