@<TRIPOS>MOLECULE
IMPHY014833
 39 40 0 0 0
SMALL
GASTEIGER

@<TRIPOS>ATOM
      1 C           3.4088    1.1235    0.0000 C.3     1  UNL1       -0.0249
      2 C           4.1906    0.5000    0.0000 C.3     1  UNL1        0.0038
      3 C           2.4339    0.9010    0.0000 C.3     1  UNL1       -0.0468
      4 C           4.1906   -0.5000    0.0000 C.2     1  UNL1       -0.0629
      5 C           2.0000   -0.0000    0.0000 C.3     1  UNL1       -0.0489
      6 C           5.0846   -1.0347    0.0000 C.3     1  UNL1       -0.0272
      7 C           3.4088   -1.1235    0.0000 C.2     1  UNL1       -0.0728
      8 C           2.4339   -0.9010    0.0000 C.3     1  UNL1       -0.0317
      9 C           5.0846    1.0347    0.0000 C.2     1  UNL1       -0.0774
     10 C           3.1863    2.0984    0.0000 C.3     1  UNL1       -0.0590
     11 C           4.0323    1.9053    0.0000 C.3     1  UNL1       -0.0590
     12 C           5.9906   -0.5208    0.0000 C.3     1  UNL1       -0.0283
     13 C           5.9906    0.5208    0.0000 C.2     1  UNL1       -0.0757
     14 C           3.6313   -2.0984    0.0000 C.3     1  UNL1       -0.0435
     15 C           6.8547    1.0241    0.0000 C.3     1  UNL1       -0.0438
     16 H           4.2476    1.3481    0.0000 H       1  UNL1        0.0393
     17 H           2.4339    1.5210    0.0000 H       1  UNL1        0.0271
     18 H           1.8294    1.0389    0.0000 H       1  UNL1        0.0271
     19 H           1.5153    0.3866    0.0000 H       1  UNL1        0.0268
     20 H           1.5153   -0.3866    0.0000 H       1  UNL1        0.0268
     21 H           4.6800   -1.5044    0.0000 H       1  UNL1        0.0313
     22 H           5.4782   -1.5137    0.0000 H       1  UNL1        0.0313
     23 H           1.8294   -1.0389    0.0000 H       1  UNL1        0.0310
     24 H           2.4339   -1.5210    0.0000 H       1  UNL1        0.0310
     25 H           5.0774    1.6546    0.0000 H       1  UNL1        0.0578
     26 H           3.7908    2.2364    0.0000 H       1  UNL1        0.0235
     27 H           3.0483    2.7029    0.0000 H       1  UNL1        0.0235
     28 H           2.5818    1.9604    0.0000 H       1  UNL1        0.0235
     29 H           4.5170    1.5188    0.0000 H       1  UNL1        0.0235
     30 H           4.4189    2.3901    0.0000 H       1  UNL1        0.0235
     31 H           3.5476    2.2919    0.0000 H       1  UNL1        0.0235
     32 H           6.1997   -1.1045    0.0000 H       1  UNL1        0.0313
     33 H           6.6015   -0.4147    0.0000 H       1  UNL1        0.0313
     34 H           3.0269   -2.2364    0.0000 H       1  UNL1        0.0274
     35 H           3.7693   -2.7029    0.0000 H       1  UNL1        0.0274
     36 H           4.2358   -1.9604    0.0000 H       1  UNL1        0.0274
     37 H           7.1668    0.4884    0.0000 H       1  UNL1        0.0274
     38 H           7.3905    1.3362    0.0000 H       1  UNL1        0.0274
     39 H           6.5427    1.5599    0.0000 H       1  UNL1        0.0274
@<TRIPOS>BOND
     1     1     2    1
     2     1     3    1
     3     1    10    1
     4     1    11    1
     5     2     4    1
     6     2     9    1
     7     2    16    1
     8     3     5    1
     9     3    17    1
    10     3    18    1
    11     4     6    1
    12     4     7    2
    13     5     8    1
    14     5    19    1
    15     5    20    1
    16     6    12    1
    17     6    21    1
    18     6    22    1
    19     7     8    1
    20     7    14    1
    21     8    23    1
    22     8    24    1
    23     9    13    2
    24     9    25    1
    25    10    26    1
    26    10    27    1
    27    10    28    1
    28    11    29    1
    29    11    30    1
    30    11    31    1
    31    12    13    1
    32    12    32    1
    33    12    33    1
    34    13    15    1
    35    14    34    1
    36    14    35    1
    37    14    36    1
    38    15    37    1
    39    15    38    1
    40    15    39    1
