@<TRIPOS>MOLECULE
IMPHY013744
 25 24 0 0 0
SMALL
GASTEIGER

@<TRIPOS>ATOM
      1 BR          4.2320   -1.1830    0.0000 Br      1  UNL1       -0.0745
      2 O           4.5981    1.1830    0.0000 O.2     1  UNL1       -0.2738
      3 O           6.3301    1.1830    0.0000 O.2     1  UNL1       -0.2527
      4 N           5.4641   -0.3170    0.0000 N.am    1  UNL1       -0.2392
      5 N           7.1962   -0.3170    0.0000 N.am    1  UNL1       -0.3130
      6 C           3.7320   -0.3170    0.0000 C.3     1  UNL1        0.1018
      7 C           2.8660   -0.8170    0.0000 C.3     1  UNL1       -0.0321
      8 C           3.2320    0.5490    0.0000 C.3     1  UNL1       -0.0321
      9 C           4.5981    0.1830    0.0000 C.2     1  UNL1        0.2370
     10 C           2.0000   -0.3170    0.0000 C.3     1  UNL1       -0.0636
     11 C           2.2320    0.5490    0.0000 C.3     1  UNL1       -0.0636
     12 C           6.3301    0.1830    0.0000 C.2     1  UNL1        0.3033
     13 H           2.4675   -1.2919    0.0000 H       1  UNL1        0.0281
     14 H           3.2646   -1.2919    0.0000 H       1  UNL1        0.0281
     15 H           3.8147    0.7611    0.0000 H       1  UNL1        0.0281
     16 H           3.1244    1.1596    0.0000 H       1  UNL1        0.0281
     17 H           2.3100    0.2199    0.0000 H       1  UNL1        0.0230
     18 H           1.4631   -0.0070    0.0000 H       1  UNL1        0.0230
     19 H           1.6900   -0.8539    0.0000 H       1  UNL1        0.0230
     20 H           2.2320    1.1690    0.0000 H       1  UNL1        0.0230
     21 H           1.6120    0.5490    0.0000 H       1  UNL1        0.0230
     22 H           2.2320   -0.0710    0.0000 H       1  UNL1        0.0230
     23 H           5.4641   -0.9370    0.0000 H       1  UNL1        0.1591
     24 H           7.7331   -0.0070    0.0000 H       1  UNL1        0.1465
     25 H           7.1962   -0.9370    0.0000 H       1  UNL1        0.1465
@<TRIPOS>BOND
     1     1     6    1
     2     2     9    2
     3     3    12    2
     4     4     9   am
     5     4    12   am
     6     4    23    1
     7     5    12   am
     8     5    24    1
     9     5    25    1
    10     6     7    1
    11     6     8    1
    12     6     9    1
    13     7    10    1
    14     7    13    1
    15     7    14    1
    16     8    11    1
    17     8    15    1
    18     8    16    1
    19    10    17    1
    20    10    18    1
    21    10    19    1
    22    11    20    1
    23    11    21    1
    24    11    22    1
