@<TRIPOS>MOLECULE
IMPHY008579
 70 73 0 0 0
SMALL
GASTEIGER

@<TRIPOS>ATOM
      1 O           5.0962    2.5981    0.0000 O.3     1  UNL1       -0.4864
      2 O           5.4451   -1.2784    0.0000 O.2     1  UNL1       -0.2739
      3 O           5.5996    1.7340    0.0000 O.2     1  UNL1       -0.2736
      4 O           8.6138    1.7216    0.0000 O.2     1  UNL1       -0.2734
      5 N           4.4271    0.1229    0.0000 N.am    1  UNL1       -0.2851
      6 N           6.5962    0.0000    0.0000 N.am    1  UNL1       -0.3020
      7 N           3.8271   -2.4540    0.0000 N.3     1  UNL1       -0.3085
      8 N           9.0962    0.8660    0.0000 N.am    1  UNL1       -0.2904
      9 C           5.0962    0.8660    0.0000 C.3     1  UNL1        0.1390
     10 C           4.5962    1.7320    0.0000 C.3     1  UNL1        0.1285
     11 C           3.6180    1.5241    0.0000 C.3     1  UNL1        0.0024
     12 C           3.5135    0.5296    0.0000 C.3     1  UNL1        0.0191
     13 C           4.5316   -0.8716    0.0000 C.2     1  UNL1        0.2336
     14 C           3.7226   -1.4594    0.0000 C.3     1  UNL1        0.0871
     15 C           6.0962    0.8660    0.0000 C.2     1  UNL1        0.2378
     16 C           2.8090   -1.0527    0.0000 C.3     1  UNL1       -0.0228
     17 C           7.5962    0.0000    0.0000 C.3     1  UNL1        0.1037
     18 C           6.0962    2.5981    0.0000 C.ar    1  UNL1        0.1211
     19 C           2.0000   -1.6405    0.0000 C.3     1  UNL1       -0.0608
     20 C           2.7045   -0.0582    0.0000 C.3     1  UNL1       -0.0608
     21 C           8.0962   -0.8660    0.0000 C.3     1  UNL1       -0.0006
     22 C           3.0181   -3.0417    0.0000 C.3     1  UNL1       -0.0151
     23 C           8.0962    0.8660    0.0000 C.2     1  UNL1        0.2374
     24 C           6.5962    1.7320    0.0000 C.ar    1  UNL1       -0.0194
     25 C           6.5962    3.4641    0.0000 C.ar    1  UNL1       -0.0194
     26 C           7.5962   -1.7320    0.0000 C.ar    1  UNL1       -0.0451
     27 C           7.5962    1.7320    0.0000 C.ar    1  UNL1       -0.0511
     28 C           7.5962    3.4641    0.0000 C.ar    1  UNL1       -0.0511
     29 C           8.0962    2.5981    0.0000 C.ar    1  UNL1       -0.0236
     30 C           6.5962   -1.7320    0.0000 C.ar    1  UNL1       -0.0585
     31 C           8.0962   -2.5981    0.0000 C.ar    1  UNL1       -0.0585
     32 C           9.0962    2.5981    0.0000 C.2     1  UNL1       -0.0407
     33 C           9.5962    1.7320    0.0000 C.2     1  UNL1       -0.0031
     34 C           6.0962   -2.5981    0.0000 C.ar    1  UNL1       -0.0615
     35 C           7.5962   -3.4641    0.0000 C.ar    1  UNL1       -0.0615
     36 C           6.5962   -3.4641    0.0000 C.ar    1  UNL1       -0.0617
     37 H           5.4419    0.0895    0.0000 H       1  UNL1        0.0634
     38 H           4.0966    2.4197    0.0000 H       1  UNL1        0.0757
     39 H           3.5532    2.1408    0.0000 H       1  UNL1        0.0317
     40 H           2.9980    1.5241    0.0000 H       1  UNL1        0.0317
     41 H           2.9071    0.6585    0.0000 H       1  UNL1        0.0466
     42 H           3.3219   -0.0600    0.0000 H       1  UNL1        0.0466
     43 H           4.2890   -1.7116    0.0000 H       1  UNL1        0.0559
     44 H           2.2426   -0.8005    0.0000 H       1  UNL1        0.0315
     45 H           6.2862   -0.5369    0.0000 H       1  UNL1        0.1495
     46 H           7.2862   -0.5369    0.0000 H       1  UNL1        0.0598
     47 H           4.3935   -2.7061    0.0000 H       1  UNL1        0.1223
     48 H           3.3211    0.0066    0.0000 H       1  UNL1        0.0233
     49 H           2.6397    0.5584    0.0000 H       1  UNL1        0.0233
     50 H           2.0879   -0.1230    0.0000 H       1  UNL1        0.0233
     51 H           1.6356   -1.1389    0.0000 H       1  UNL1        0.0233
     52 H           1.4984   -2.0049    0.0000 H       1  UNL1        0.0233
     53 H           2.3644   -2.1421    0.0000 H       1  UNL1        0.0233
     54 H           8.5711   -1.2646    0.0000 H       1  UNL1        0.0336
     55 H           8.5711   -0.4675    0.0000 H       1  UNL1        0.0336
     56 H           2.6536   -2.5401    0.0000 H       1  UNL1        0.0388
     57 H           2.5165   -3.4062    0.0000 H       1  UNL1        0.0388
     58 H           3.3825   -3.5433    0.0000 H       1  UNL1        0.0388
     59 H           6.2862    1.1951    0.0000 H       1  UNL1        0.0654
     60 H           6.2862    4.0010    0.0000 H       1  UNL1        0.0654
     61 H           7.9062    1.1951    0.0000 H       1  UNL1        0.0625
     62 H           7.9062    4.0010    0.0000 H       1  UNL1        0.0625
     63 H           9.4062    0.3291    0.0000 H       1  UNL1        0.1543
     64 H           6.2862   -1.1951    0.0000 H       1  UNL1        0.0620
     65 H           8.7162   -2.5981    0.0000 H       1  UNL1        0.0620
     66 H           9.4062    3.1350    0.0000 H       1  UNL1        0.0636
     67 H          10.2162    1.7320    0.0000 H       1  UNL1        0.0782
     68 H           5.4762   -2.5981    0.0000 H       1  UNL1        0.0618
     69 H           7.9062   -4.0010    0.0000 H       1  UNL1        0.0618
     70 H           6.2862   -4.0010    0.0000 H       1  UNL1        0.0618
@<TRIPOS>BOND
     1     1    10    1
     2     1    18    1
     3     2    13    2
     4     3    15    2
     5     4    23    2
     6     5     9    1
     7     5    12    1
     8     5    13   am
     9     6    15   am
    10     6    17    1
    11     6    45    1
    12    14     7    1
    13     7    22    1
    14     7    47    1
    15     8    23   am
    16     8    33    1
    17     8    63    1
    18     9    10    1
    19     9    15    1
    20     9    37    1
    21    10    11    1
    22    10    38    1
    23    11    12    1
    24    11    39    1
    25    11    40    1
    26    12    41    1
    27    12    42    1
    28    13    14    1
    29    14    16    1
    30    14    43    1
    31    16    19    1
    32    16    20    1
    33    16    44    1
    34    17    21    1
    35    17    23    1
    36    17    46    1
    37    18    24   ar
    38    18    25   ar
    39    19    51    1
    40    19    52    1
    41    19    53    1
    42    20    48    1
    43    20    49    1
    44    20    50    1
    45    21    26    1
    46    21    54    1
    47    21    55    1
    48    22    56    1
    49    22    57    1
    50    22    58    1
    51    24    27   ar
    52    24    59    1
    53    25    28   ar
    54    25    60    1
    55    26    30   ar
    56    26    31   ar
    57    27    29   ar
    58    27    61    1
    59    28    29   ar
    60    28    62    1
    61    29    32    1
    62    30    34   ar
    63    30    64    1
    64    31    35   ar
    65    31    65    1
    66    32    33    2
    67    32    66    1
    68    33    67    1
    69    34    36   ar
    70    34    68    1
    71    35    36   ar
    72    35    69    1
    73    36    70    1
