@<TRIPOS>MOLECULE
IMPHY003216
 50 52 0 0 0
SMALL
GASTEIGER

@<TRIPOS>ATOM
      1 O           2.0000    2.5662    0.0000 O.3     1  UNL1       -0.3875
      2 O           3.3660   -3.4726    0.0000 O.2     1  UNL1       -0.4704
      3 C           4.5981    1.0662    0.0000 C.3     1  UNL1       -0.0186
      4 C           4.5981    2.0662    0.0000 C.3     1  UNL1       -0.0270
      5 C           5.4920    2.6009    0.0000 C.3     1  UNL1       -0.0314
      6 C           5.4920    0.5316    0.0000 C.3     1  UNL1       -0.0465
      7 C           3.7320    0.5662    0.0000 C.3     1  UNL1        0.0063
      8 C           3.7320    2.5662    0.0000 C.3     1  UNL1       -0.0191
      9 C           6.3981    2.0870    0.0000 C.3     1  UNL1       -0.0476
     10 C           6.3981    1.0454    0.0000 C.3     1  UNL1       -0.0520
     11 C           2.8660    2.0662    0.0000 C.3     1  UNL1        0.0769
     12 C           4.5981    0.0662    0.0000 C.3     1  UNL1       -0.0585
     13 C           2.8660    1.0662    0.0000 C.2     1  UNL1       -0.0412
     14 C           5.9820    3.4726    0.0000 C.3     1  UNL1       -0.0595
     15 C           4.9820    3.4611    0.0000 C.3     1  UNL1       -0.0595
     16 C           3.7320   -0.4338    0.0000 C.2     1  UNL1       -0.0757
     17 C           2.0000    0.5662    0.0000 C.2     1  UNL1       -0.0964
     18 C           2.8660   -0.9338    0.0000 C.2     1  UNL1       -0.0549
     19 C           2.8660   -1.9338    0.0000 C.ar    1  UNL1        0.0124
     20 C           2.0570   -2.5216    0.0000 C.ar    1  UNL1       -0.0168
     21 C           3.6750   -2.5216    0.0000 C.ar    1  UNL1        0.0988
     22 C           2.3660   -3.4726    0.0000 C.ar    1  UNL1        0.0923
     23 H           4.5915    2.9162    0.0000 H       1  UNL1        0.0312
     24 H           5.0874    0.0618    0.0000 H       1  UNL1        0.0271
     25 H           5.8856    0.0525    0.0000 H       1  UNL1        0.0271
     26 H           3.1951    0.2562    0.0000 H       1  UNL1        0.0394
     27 H           4.1306    3.0412    0.0000 H       1  UNL1        0.0296
     28 H           3.3335    3.0412    0.0000 H       1  UNL1        0.0296
     29 H           7.0089    1.9809    0.0000 H       1  UNL1        0.0271
     30 H           6.6071    2.6707    0.0000 H       1  UNL1        0.0271
     31 H           6.6071    0.4617    0.0000 H       1  UNL1        0.0266
     32 H           7.0089    1.1515    0.0000 H       1  UNL1        0.0266
     33 H           2.8660    2.6862    0.0000 H       1  UNL1        0.0640
     34 H           3.9781    0.0662    0.0000 H       1  UNL1        0.0235
     35 H           4.5981   -0.5538    0.0000 H       1  UNL1        0.0235
     36 H           5.2181    0.0662    0.0000 H       1  UNL1        0.0235
     37 H           6.5225    3.1689    0.0000 H       1  UNL1        0.0235
     38 H           6.2857    4.0131    0.0000 H       1  UNL1        0.0235
     39 H           5.4415    3.7764    0.0000 H       1  UNL1        0.0235
     40 H           5.5154    3.7772    0.0000 H       1  UNL1        0.0235
     41 H           4.6658    3.9944    0.0000 H       1  UNL1        0.0235
     42 H           4.4487    3.1449    0.0000 H       1  UNL1        0.0235
     43 H           4.2690   -0.7438    0.0000 H       1  UNL1        0.0578
     44 H           1.4631    0.8762    0.0000 H       1  UNL1        0.0535
     45 H           2.0000   -0.0538    0.0000 H       1  UNL1        0.0535
     46 H           2.0000    3.1862    0.0000 H       1  UNL1        0.2102
     47 H           2.3291   -0.6238    0.0000 H       1  UNL1        0.0621
     48 H           1.4674   -2.3300    0.0000 H       1  UNL1        0.0655
     49 H           4.2647   -2.3300    0.0000 H       1  UNL1        0.1035
     50 H           2.0016   -3.9742    0.0000 H       1  UNL1        0.1029
@<TRIPOS>BOND
     1    11     1    1
     2     1    46    1
     3     2    21   ar
     4     2    22   ar
     5     3     4    1
     6     3     6    1
     7     3     7    1
     8     3    12    1
     9     4     5    1
    10     4     8    1
    11     4    23    1
    12     5     9    1
    13     5    14    1
    14     5    15    1
    15     6    10    1
    16     6    24    1
    17     6    25    1
    18     7    13    1
    19     7    16    1
    20     7    26    1
    21     8    11    1
    22     8    27    1
    23     8    28    1
    24     9    10    1
    25     9    29    1
    26     9    30    1
    27    10    31    1
    28    10    32    1
    29    11    13    1
    30    11    33    1
    31    12    34    1
    32    12    35    1
    33    12    36    1
    34    13    17    2
    35    14    37    1
    36    14    38    1
    37    14    39    1
    38    15    40    1
    39    15    41    1
    40    15    42    1
    41    16    18    2
    42    16    43    1
    43    17    44    1
    44    17    45    1
    45    18    19    1
    46    18    47    1
    47    19    20   ar
    48    19    21   ar
    49    20    22   ar
    50    20    48    1
    51    21    49    1
    52    22    50    1
