@<TRIPOS>MOLECULE
IMPHY001518
 21 21 0 0 0
SMALL
GASTEIGER

@<TRIPOS>ATOM
      1 O           2.8660    1.5600    0.0000 O.3     1  UNL1       -0.4646
      2 O           2.0000    0.0600    0.0000 O.2     1  UNL1       -0.2453
      3 N           4.5981   -1.4400    0.0000 N.3     1  UNL1       -0.3115
      4 C           5.4641   -0.9400    0.0000 C.3     1  UNL1       -0.0004
      5 C           5.4641    0.0600    0.0000 C.3     1  UNL1       -0.0214
      6 C           3.7320   -0.9400    0.0000 C.3     1  UNL1        0.0277
      7 C           3.7320    0.0600    0.0000 C.2     1  UNL1        0.0464
      8 C           4.5981    0.5600    0.0000 C.2     1  UNL1       -0.0716
      9 C           2.8660    0.5600    0.0000 C.2     1  UNL1        0.3358
     10 C           2.0000    2.0600    0.0000 C.3     1  UNL1        0.0820
     11 H           5.6762   -1.5226    0.0000 H       1  UNL1        0.0427
     12 H           6.0747   -0.8323    0.0000 H       1  UNL1        0.0427
     13 H           6.0747   -0.0477    0.0000 H       1  UNL1        0.0320
     14 H           5.6762    0.6426    0.0000 H       1  UNL1        0.0320
     15 H           3.1215   -0.8323    0.0000 H       1  UNL1        0.0476
     16 H           3.5200   -1.5226    0.0000 H       1  UNL1        0.0476
     17 H           4.5981   -2.0600    0.0000 H       1  UNL1        0.1223
     18 H           4.5981    1.1800    0.0000 H       1  UNL1        0.0578
     19 H           2.3100    2.5969    0.0000 H       1  UNL1        0.0661
     20 H           1.4631    2.3700    0.0000 H       1  UNL1        0.0661
     21 H           1.6900    1.5231    0.0000 H       1  UNL1        0.0661
@<TRIPOS>BOND
     1     1     9    1
     2     1    10    1
     3     2     9    2
     4     3     4    1
     5     3     6    1
     6     3    17    1
     7     4     5    1
     8     4    11    1
     9     4    12    1
    10     5     8    1
    11     5    13    1
    12     5    14    1
    13     6     7    1
    14     6    15    1
    15     6    16    1
    16     7     8    2
    17     7     9    1
    18     8    18    1
    19    10    19    1
    20    10    20    1
    21    10    21    1
