@<TRIPOS>MOLECULE
IMPHY005817
 52 55 0 0 0
SMALL
GASTEIGER

@<TRIPOS>ATOM
      1 O           3.9127   -2.6710    0.0000 O.3     1  UNL1       -0.4526
      2 O           3.4127   -1.1411    0.0000 O.3     1  UNL1       -0.4526
      3 O           6.9939    1.9008    0.0000 O.3     1  UNL1       -0.4216
      4 O           4.5981    3.9008    0.0000 O.3     1  UNL1       -0.4906
      5 O           2.8660    2.9008    0.0000 O.3     1  UNL1       -0.4914
      6 O           6.7210    3.6561    0.0000 O.2     1  UNL1       -0.2444
      7 N           6.9851   -3.4503    0.0000 N.3     1  UNL1       -0.3080
      8 C           6.3638   -1.5493    0.0000 C.ar    1  UNL1       -0.0352
      9 C           7.3423   -1.7555    0.0000 C.3     1  UNL1       -0.0142
     10 C           6.0531   -0.5987    0.0000 C.ar    1  UNL1       -0.0146
     11 C           7.6530   -2.7060    0.0000 C.3     1  UNL1        0.0023
     12 C           5.6960   -2.2936    0.0000 C.ar    1  UNL1       -0.0124
     13 C           4.7175   -2.0873    0.0000 C.ar    1  UNL1        0.1665
     14 C           5.0746   -0.3925    0.0000 C.ar    1  UNL1       -0.0086
     15 C           4.4068   -1.1368    0.0000 C.ar    1  UNL1        0.1668
     16 C           6.7210    0.1456    0.0000 C.2     1  UNL1       -0.0111
     17 C           6.4103    1.0961    0.0000 C.2     1  UNL1        0.1405
     18 C           5.4641    1.4008    0.0000 C.ar    1  UNL1        0.0352
     19 C           5.4641    2.4008    0.0000 C.ar    1  UNL1        0.1151
     20 C           4.5981    2.9008    0.0000 C.ar    1  UNL1        0.1762
     21 C           3.1080   -2.0873    0.0000 C.3     1  UNL1        0.2332
     22 C           4.5981    0.9008    0.0000 C.ar    1  UNL1       -0.0466
     23 C           6.4103    2.7056    0.0000 C.2     1  UNL1        0.3488
     24 C           7.2958   -4.4008    0.0000 C.3     1  UNL1       -0.0130
     25 C           6.0066   -3.2441    0.0000 C.3     1  UNL1       -0.0130
     26 C           3.7320    2.4008    0.0000 C.ar    1  UNL1        0.1623
     27 C           3.7320    1.4008    0.0000 C.ar    1  UNL1       -0.0156
     28 C           3.7320    4.4008    0.0000 C.3     1  UNL1        0.0790
     29 C           2.0000    2.4008    0.0000 C.3     1  UNL1        0.0790
     30 H           7.9561   -1.6681    0.0000 H       1  UNL1        0.0326
     31 H           7.3629   -1.1358    0.0000 H       1  UNL1        0.0326
     32 H           8.0355   -3.1939    0.0000 H       1  UNL1        0.0429
     33 H           8.1999   -2.4140    0.0000 H       1  UNL1        0.0429
     34 H           5.8886   -2.8829    0.0000 H       1  UNL1        0.0658
     35 H           4.8820    0.1968    0.0000 H       1  UNL1        0.0661
     36 H           7.3277    0.0177    0.0000 H       1  UNL1        0.0660
     37 H           4.5981    0.2808    0.0000 H       1  UNL1        0.0626
     38 H           2.5411   -1.8363    0.0000 H       1  UNL1        0.1166
     39 H           2.7988   -2.6247    0.0000 H       1  UNL1        0.1166
     40 H           6.1345   -2.6374    0.0000 H       1  UNL1        0.0391
     41 H           5.3999   -3.1162    0.0000 H       1  UNL1        0.0391
     42 H           5.8788   -3.8508    0.0000 H       1  UNL1        0.0391
     43 H           6.7065   -4.5934    0.0000 H       1  UNL1        0.0391
     44 H           7.4884   -4.9901    0.0000 H       1  UNL1        0.0391
     45 H           7.8851   -4.2082    0.0000 H       1  UNL1        0.0391
     46 H           3.1951    1.0908    0.0000 H       1  UNL1        0.0655
     47 H           4.0420    4.9378    0.0000 H       1  UNL1        0.0660
     48 H           3.1951    4.7108    0.0000 H       1  UNL1        0.0660
     49 H           3.4220    3.8639    0.0000 H       1  UNL1        0.0660
     50 H           1.6900    2.9378    0.0000 H       1  UNL1        0.0660
     51 H           1.4631    2.0908    0.0000 H       1  UNL1        0.0660
     52 H           2.3100    1.8639    0.0000 H       1  UNL1        0.0660
@<TRIPOS>BOND
     1     1    13    1
     2     1    21    1
     3     2    15    1
     4     2    21    1
     5     3    17    1
     6     3    23    1
     7     4    20    1
     8     4    28    1
     9     5    26    1
    10     5    29    1
    11     6    23    2
    12     7    11    1
    13     7    24    1
    14     7    25    1
    15     8     9    1
    16     8    10   ar
    17     8    12   ar
    18     9    11    1
    19     9    30    1
    20     9    31    1
    21    10    14   ar
    22    10    16    1
    23    11    32    1
    24    11    33    1
    25    12    13   ar
    26    12    34    1
    27    13    15   ar
    28    14    15   ar
    29    14    35    1
    30    16    17    2
    31    16    36    1
    32    17    18    1
    33    18    19   ar
    34    18    22   ar
    35    19    20   ar
    36    19    23    1
    37    20    26   ar
    38    21    38    1
    39    21    39    1
    40    22    27   ar
    41    22    37    1
    42    24    43    1
    43    24    44    1
    44    24    45    1
    45    25    40    1
    46    25    41    1
    47    25    42    1
    48    26    27   ar
    49    27    46    1
    50    28    47    1
    51    28    48    1
    52    28    49    1
    53    29    50    1
    54    29    51    1
    55    29    52    1
