@<TRIPOS>MOLECULE
IMPHY012786
 34 35 0 0 0
SMALL
GASTEIGER

@<TRIPOS>ATOM
      1 O           4.2690   -3.5000    0.0000 O.3     1  UNL1       -0.4949
      2 O           6.0010   -0.5000    0.0000 O.3     1  UNL1       -0.5058
      3 O           2.5369   -0.5000    0.0000 O.3     1  UNL1       -0.5058
      4 O           3.4030    1.0000    0.0000 O.2     1  UNL1       -0.2870
      5 C           4.2690   -0.5000    0.0000 C.ar    1  UNL1        0.1045
      6 C           5.1350   -1.0000    0.0000 C.ar    1  UNL1        0.1346
      7 C           3.4030   -1.0000    0.0000 C.ar    1  UNL1        0.1346
      8 C           4.2690   -2.5000    0.0000 C.ar    1  UNL1        0.1271
      9 C           5.1350   -2.0000    0.0000 C.ar    1  UNL1        0.0225
     10 C           3.4030   -2.0000    0.0000 C.ar    1  UNL1        0.0225
     11 C           4.2690    0.5000    0.0000 C.2     1  UNL1        0.1931
     12 C           6.0010    2.5000    0.0000 C.ar    1  UNL1       -0.0249
     13 C           5.1350    1.0000    0.0000 C.2     1  UNL1       -0.0135
     14 C           5.1350    2.0000    0.0000 C.2     1  UNL1       -0.0510
     15 C           6.8671    2.0000    0.0000 C.ar    1  UNL1       -0.0546
     16 C           6.0010    3.5000    0.0000 C.ar    1  UNL1       -0.0546
     17 C           7.7331    2.5000    0.0000 C.ar    1  UNL1       -0.0612
     18 C           6.8671    4.0000    0.0000 C.ar    1  UNL1       -0.0612
     19 C           7.7331    3.5000    0.0000 C.ar    1  UNL1       -0.0617
     20 C           3.4030   -4.0000    0.0000 C.3     1  UNL1        0.0788
     21 H           5.6720   -2.3100    0.0000 H       1  UNL1        0.0691
     22 H           2.8660   -2.3100    0.0000 H       1  UNL1        0.0691
     23 H           5.6720    0.6900    0.0000 H       1  UNL1        0.0656
     24 H           4.5981    2.3100    0.0000 H       1  UNL1        0.0625
     25 H           6.8671    1.3800    0.0000 H       1  UNL1        0.0623
     26 H           5.4641    3.8100    0.0000 H       1  UNL1        0.0623
     27 H           8.2700    2.1900    0.0000 H       1  UNL1        0.0618
     28 H           6.8671    4.6200    0.0000 H       1  UNL1        0.0618
     29 H           8.2700    3.8100    0.0000 H       1  UNL1        0.0618
     30 H           6.5380   -0.8100    0.0000 H       1  UNL1        0.2922
     31 H           2.0000   -0.8100    0.0000 H       1  UNL1        0.2922
     32 H           3.0930   -3.4631    0.0000 H       1  UNL1        0.0660
     33 H           2.8660   -4.3100    0.0000 H       1  UNL1        0.0660
     34 H           3.7130   -4.5369    0.0000 H       1  UNL1        0.0660
@<TRIPOS>BOND
     1     1     8    1
     2     1    20    1
     3     2     6    1
     4     2    30    1
     5     3     7    1
     6     3    31    1
     7     4    11    2
     8     5     6   ar
     9     5     7   ar
    10     5    11    1
    11     6     9   ar
    12     7    10   ar
    13     8     9   ar
    14     8    10   ar
    15     9    21    1
    16    10    22    1
    17    11    13    1
    18    12    14    1
    19    12    15   ar
    20    12    16   ar
    21    13    14    2
    22    13    23    1
    23    14    24    1
    24    15    17   ar
    25    15    25    1
    26    16    18   ar
    27    16    26    1
    28    17    19   ar
    29    17    27    1
    30    18    19   ar
    31    18    28    1
    32    19    29    1
    33    20    32    1
    34    20    33    1
    35    20    34    1
