@<TRIPOS>MOLECULE
IMPHY013187
 75 79 0 0 0
SMALL
GASTEIGER

@<TRIPOS>ATOM
      1 O           6.0010   -1.7857    0.0000 O.3     1  UNL1       -0.3366
      2 O           4.2690    0.2143    0.0000 O.3     1  UNL1       -0.3339
      3 O           5.1350   -3.2857    0.0000 O.3     1  UNL1       -0.3431
      4 O           6.0010    0.2143    0.0000 O.3     1  UNL1       -0.4532
      5 O           4.2690   -2.7857    0.0000 O.3     1  UNL1       -0.3863
      6 O           2.5369   -1.7857    0.0000 O.3     1  UNL1       -0.3866
      7 O           7.7331   -2.7857    0.0000 O.3     1  UNL1       -0.3841
      8 O           7.7331   -4.7857    0.0000 O.3     1  UNL1       -0.3864
      9 O           6.0010   -5.7857    0.0000 O.3     1  UNL1       -0.3866
     10 O           6.8671    2.7143    0.0000 O.2     1  UNL1       -0.4507
     11 O           4.2690    1.2143    0.0000 O.2     1  UNL1       -0.2830
     12 O           3.3648    2.7112    0.0000 O.3     1  UNL1       -0.5058
     13 O           5.1229    5.7836    0.0000 O.3     1  UNL1       -0.5065
     14 O          10.3312    1.7143    0.0000 O.3     1  UNL1       -0.4914
     15 O          10.3312   -0.2857    0.0000 O.3     1  UNL1       -0.5033
     16 C           5.1350   -1.2857    0.0000 C.3     1  UNL1        0.1519
     17 C           4.2690   -1.7857    0.0000 C.3     1  UNL1        0.1155
     18 C           3.4030   -1.2857    0.0000 C.3     1  UNL1        0.1096
     19 C           6.0010   -2.7857    0.0000 C.3     1  UNL1        0.1885
     20 C           6.8671   -3.2857    0.0000 C.3     1  UNL1        0.1341
     21 C           5.1350   -0.2857    0.0000 C.3     1  UNL1        0.2314
     22 C           6.8671   -4.2857    0.0000 C.3     1  UNL1        0.1140
     23 C           3.4030   -0.2857    0.0000 C.3     1  UNL1        0.0883
     24 C           6.0010   -4.7857    0.0000 C.3     1  UNL1        0.1095
     25 C           5.1350   -4.2857    0.0000 C.3     1  UNL1        0.0873
     26 C           2.5369    0.2143    0.0000 C.3     1  UNL1       -0.0360
     27 C           4.2690   -4.7857    0.0000 C.3     1  UNL1       -0.0361
     28 C           6.0010    1.2143    0.0000 C.ar    1  UNL1        0.2138
     29 C           6.8671    1.7143    0.0000 C.ar    1  UNL1        0.1810
     30 C           5.1350    1.7143    0.0000 C.ar    1  UNL1        0.2382
     31 C           5.1350    2.7143    0.0000 C.ar    1  UNL1        0.1092
     32 C           7.7331    1.2143    0.0000 C.ar    1  UNL1        0.0247
     33 C           6.0010    3.2143    0.0000 C.ar    1  UNL1        0.1465
     34 C           4.2250    3.2212    0.0000 C.ar    1  UNL1        0.1348
     35 C           6.0171    4.2558    0.0000 C.ar    1  UNL1        0.0231
     36 C           8.5991    1.7143    0.0000 C.ar    1  UNL1       -0.0055
     37 C           7.7331    0.2143    0.0000 C.ar    1  UNL1       -0.0473
     38 C           4.2170    4.2628    0.0000 C.ar    1  UNL1        0.0223
     39 C           5.1191    4.7836    0.0000 C.ar    1  UNL1        0.1239
     40 C           9.4651    1.2143    0.0000 C.ar    1  UNL1        0.1619
     41 C           8.5991   -0.2857    0.0000 C.ar    1  UNL1       -0.0159
     42 C           9.4651    0.2143    0.0000 C.ar    1  UNL1        0.1585
     43 C          10.3312    2.7143    0.0000 C.3     1  UNL1        0.0790
     44 H           5.1350   -1.9057    0.0000 H       1  UNL1        0.0687
     45 H           3.7320   -2.0957    0.0000 H       1  UNL1        0.0648
     46 H           3.4030   -1.9057    0.0000 H       1  UNL1        0.0646
     47 H           6.5380   -2.4757    0.0000 H       1  UNL1        0.0938
     48 H           7.4040   -3.5957    0.0000 H       1  UNL1        0.0671
     49 H           5.1350    0.3343    0.0000 H       1  UNL1        0.1084
     50 H           6.8671   -4.9057    0.0000 H       1  UNL1        0.0648
     51 H           3.4030    0.3343    0.0000 H       1  UNL1        0.0621
     52 H           6.5380   -5.0957    0.0000 H       1  UNL1        0.0646
     53 H           4.5981   -3.9757    0.0000 H       1  UNL1        0.0621
     54 H           2.8469    0.7513    0.0000 H       1  UNL1        0.0255
     55 H           2.0000    0.5243    0.0000 H       1  UNL1        0.0255
     56 H           2.2269   -0.3226    0.0000 H       1  UNL1        0.0255
     57 H           3.9590   -4.2487    0.0000 H       1  UNL1        0.0255
     58 H           3.7320   -5.0957    0.0000 H       1  UNL1        0.0255
     59 H           4.5790   -5.3226    0.0000 H       1  UNL1        0.0255
     60 H           3.7320   -3.0957    0.0000 H       1  UNL1        0.2100
     61 H           2.0000   -1.4757    0.0000 H       1  UNL1        0.2100
     62 H           8.2700   -3.0957    0.0000 H       1  UNL1        0.2101
     63 H           7.7331   -5.4057    0.0000 H       1  UNL1        0.2100
     64 H           5.4641   -6.0957    0.0000 H       1  UNL1        0.2100
     65 H           6.5576    4.5596    0.0000 H       1  UNL1        0.0691
     66 H           8.5991    2.3343    0.0000 H       1  UNL1        0.0662
     67 H           7.1962   -0.0957    0.0000 H       1  UNL1        0.0626
     68 H           3.6788    4.5707    0.0000 H       1  UNL1        0.0691
     69 H           8.5991   -0.9057    0.0000 H       1  UNL1        0.0655
     70 H           2.8243    3.0150    0.0000 H       1  UNL1        0.2922
     71 H           4.5872    6.0957    0.0000 H       1  UNL1        0.2921
     72 H          10.8681    0.0243    0.0000 H       1  UNL1        0.2923
     73 H          10.9512    2.7143    0.0000 H       1  UNL1        0.0660
     74 H          10.3312    3.3343    0.0000 H       1  UNL1        0.0660
     75 H           9.7112    2.7143    0.0000 H       1  UNL1        0.0660
@<TRIPOS>BOND
     1     1    16    1
     2     1    19    1
     3     2    21    1
     4     2    23    1
     5     3    19    1
     6     3    25    1
     7     4    21    1
     8     4    28    1
     9     5    17    1
    10     5    60    1
    11     6    18    1
    12     6    61    1
    13     7    20    1
    14     7    62    1
    15     8    22    1
    16     8    63    1
    17     9    24    1
    18     9    64    1
    19    10    29   ar
    20    10    33   ar
    21    11    30    2
    22    12    34    1
    23    12    70    1
    24    13    39    1
    25    13    71    1
    26    14    40    1
    27    14    43    1
    28    15    42    1
    29    15    72    1
    30    16    17    1
    31    16    21    1
    32    16    44    1
    33    17    18    1
    34    17    45    1
    35    18    23    1
    36    18    46    1
    37    19    20    1
    38    19    47    1
    39    20    22    1
    40    20    48    1
    41    21    49    1
    42    22    24    1
    43    22    50    1
    44    23    26    1
    45    23    51    1
    46    24    25    1
    47    24    52    1
    48    25    27    1
    49    25    53    1
    50    26    54    1
    51    26    55    1
    52    26    56    1
    53    27    57    1
    54    27    58    1
    55    27    59    1
    56    28    29   ar
    57    28    30   ar
    58    29    32    1
    59    30    31   ar
    60    31    33   ar
    61    31    34   ar
    62    32    36   ar
    63    32    37   ar
    64    33    35   ar
    65    34    38   ar
    66    35    39   ar
    67    35    65    1
    68    36    40   ar
    69    36    66    1
    70    37    41   ar
    71    37    67    1
    72    38    39   ar
    73    38    68    1
    74    40    42   ar
    75    41    42   ar
    76    41    69    1
    77    43    73    1
    78    43    74    1
    79    43    75    1
