@<TRIPOS>MOLECULE
IMPHY000931
 80 84 0 0 0
SMALL
GASTEIGER

@<TRIPOS>ATOM
      1 C           6.5251    1.1511    0.0000 C.3     1  UNL1       -0.0194
      2 C           6.5251    0.1511    0.0000 C.3     1  UNL1       -0.0196
      3 C           7.4191    1.6858    0.0000 C.3     1  UNL1       -0.0292
      4 C           8.3252    1.1719    0.0000 C.3     1  UNL1       -0.0256
      5 C           5.6591   -0.3489    0.0000 C.3     1  UNL1       -0.0135
      6 C           7.4191   -0.3835    0.0000 C.3     1  UNL1       -0.0461
      7 C           9.0875    1.8727    0.0000 C.3     1  UNL1       -0.0330
      8 C           8.3252    0.1303    0.0000 C.3     1  UNL1       -0.0466
      9 C           7.6292    2.6997    0.0000 C.3     1  UNL1       -0.0489
     10 C           5.6591    1.6511    0.0000 C.3     1  UNL1       -0.0283
     11 C           4.7931    0.1511    0.0000 C.2     1  UNL1       -0.0636
     12 C           3.8831   -0.3557    0.0000 C.3     1  UNL1       -0.0075
     13 C           8.6582    2.8150    0.0000 C.3     1  UNL1       -0.0492
     14 C           3.8751   -1.3973    0.0000 C.3     1  UNL1       -0.0268
     15 C           5.6752   -1.3904    0.0000 C.3     1  UNL1       -0.0457
     16 C           6.5251    2.1511    0.0000 C.3     1  UNL1       -0.0585
     17 C           6.5251   -0.8489    0.0000 C.3     1  UNL1       -0.0585
     18 C           4.7931    1.1511    0.0000 C.2     1  UNL1       -0.0834
     19 C           9.1950    0.6786    0.0000 C.3     1  UNL1       -0.0590
     20 C           4.7771   -1.9181    0.0000 C.3     1  UNL1       -0.0484
     21 C           2.9396   -1.9470    0.0000 C.3     1  UNL1       -0.0313
     22 C          10.0675    1.6740    0.0000 C.3     1  UNL1       -0.0434
     23 C           2.9562    0.2084    0.0000 C.3     1  UNL1       -0.0436
     24 C           3.8908    0.6442    0.0000 C.3     1  UNL1       -0.0556
     25 C           2.0000   -1.4046    0.0000 C.3     1  UNL1       -0.0476
     26 C           2.0084   -0.3196    0.0000 C.3     1  UNL1       -0.0518
     27 C           2.4430   -2.8150    0.0000 C.3     1  UNL1       -0.0595
     28 C           3.4430   -2.8111    0.0000 C.3     1  UNL1       -0.0595
     29 C          10.7296    2.4234    0.0000 C.3     1  UNL1       -0.0624
     30 C          10.3855    0.7259    0.0000 C.3     1  UNL1       -0.0624
     31 H           8.1934    2.0365    0.0000 H       1  UNL1        0.0312
     32 H           6.3985   -0.7682    0.0000 H       1  UNL1        0.0351
     33 H           7.0145   -0.8533    0.0000 H       1  UNL1        0.0271
     34 H           7.8127   -0.8626    0.0000 H       1  UNL1        0.0271
     35 H           9.4733    2.3580    0.0000 H       1  UNL1        0.0309
     36 H           8.5342   -0.4534    0.0000 H       1  UNL1        0.0271
     37 H           8.9360    0.2364    0.0000 H       1  UNL1        0.0271
     38 H           7.6253    3.3197    0.0000 H       1  UNL1        0.0268
     39 H           7.0122    2.7610    0.0000 H       1  UNL1        0.0268
     40 H           6.0576    2.1261    0.0000 H       1  UNL1        0.0313
     41 H           5.2606    2.1261    0.0000 H       1  UNL1        0.0313
     42 H           9.2463    3.0113    0.0000 H       1  UNL1        0.0268
     43 H           8.5248    3.4205    0.0000 H       1  UNL1        0.0268
     44 H           3.8783   -2.2473    0.0000 H       1  UNL1        0.0314
     45 H           5.8932   -1.9708    0.0000 H       1  UNL1        0.0271
     46 H           6.2843   -1.2749    0.0000 H       1  UNL1        0.0271
     47 H           7.1451    2.1511    0.0000 H       1  UNL1        0.0235
     48 H           6.5251    2.7711    0.0000 H       1  UNL1        0.0235
     49 H           5.9051    2.1511    0.0000 H       1  UNL1        0.0235
     50 H           5.9051   -0.8489    0.0000 H       1  UNL1        0.0235
     51 H           6.5251   -1.4689    0.0000 H       1  UNL1        0.0235
     52 H           7.1451   -0.8489    0.0000 H       1  UNL1        0.0235
     53 H           4.2562    1.4611    0.0000 H       1  UNL1        0.0572
     54 H           8.8892    0.1393    0.0000 H       1  UNL1        0.0235
     55 H           9.7343    0.3728    0.0000 H       1  UNL1        0.0235
     56 H           9.5008    1.2179    0.0000 H       1  UNL1        0.0235
     57 H           4.3798   -2.3941    0.0000 H       1  UNL1        0.0269
     58 H           5.1781   -2.3910    0.0000 H       1  UNL1        0.0269
     59 H           9.6570    1.2094    0.0000 H       1  UNL1        0.0298
     60 H           3.3645    0.6750    0.0000 H       1  UNL1        0.0274
     61 H           2.5663    0.6904    0.0000 H       1  UNL1        0.0274
     62 H           4.5108    0.6395    0.0000 H       1  UNL1        0.0238
     63 H           3.8956    1.2642    0.0000 H       1  UNL1        0.0238
     64 H           3.2708    0.6490    0.0000 H       1  UNL1        0.0238
     65 H           1.3900   -1.2938    0.0000 H       1  UNL1        0.0271
     66 H           1.7864   -1.9866    0.0000 H       1  UNL1        0.0271
     67 H           1.8038    0.2657    0.0000 H       1  UNL1        0.0266
     68 H           1.3967   -0.4210    0.0000 H       1  UNL1        0.0266
     69 H           1.9048   -2.5071    0.0000 H       1  UNL1        0.0235
     70 H           2.1350   -3.3531    0.0000 H       1  UNL1        0.0235
     71 H           2.9811   -3.1229    0.0000 H       1  UNL1        0.0235
     72 H           2.9072   -3.1232    0.0000 H       1  UNL1        0.0235
     73 H           3.7550   -3.3469    0.0000 H       1  UNL1        0.0235
     74 H           3.9787   -2.4991    0.0000 H       1  UNL1        0.0235
     75 H          11.1943    2.0130    0.0000 H       1  UNL1        0.0232
     76 H          11.1401    2.8881    0.0000 H       1  UNL1        0.0232
     77 H          10.2650    2.8340    0.0000 H       1  UNL1        0.0232
     78 H           9.7977    0.5288    0.0000 H       1  UNL1        0.0232
     79 H          10.5827    0.1381    0.0000 H       1  UNL1        0.0232
     80 H          10.9733    0.9231    0.0000 H       1  UNL1        0.0232
@<TRIPOS>BOND
     1     1     2    1
     2     1     3    1
     3     1    10    1
     4     1    16    1
     5     2     5    1
     6     2     6    1
     7     2    17    1
     8     3     4    1
     9     3     9    1
    10     3    31    1
    11     4     7    1
    12     4     8    1
    13     4    19    1
    14     5    11    1
    15     5    15    1
    16     5    32    1
    17     6     8    1
    18     6    33    1
    19     6    34    1
    20     7    13    1
    21     7    22    1
    22     7    35    1
    23     8    36    1
    24     8    37    1
    25     9    13    1
    26     9    38    1
    27     9    39    1
    28    10    18    1
    29    10    40    1
    30    10    41    1
    31    11    12    1
    32    11    18    2
    33    12    14    1
    34    12    23    1
    35    12    24    1
    36    13    42    1
    37    13    43    1
    38    14    20    1
    39    14    21    1
    40    14    44    1
    41    15    20    1
    42    15    45    1
    43    15    46    1
    44    16    47    1
    45    16    48    1
    46    16    49    1
    47    17    50    1
    48    17    51    1
    49    17    52    1
    50    18    53    1
    51    19    54    1
    52    19    55    1
    53    19    56    1
    54    20    57    1
    55    20    58    1
    56    21    25    1
    57    21    27    1
    58    21    28    1
    59    22    29    1
    60    22    30    1
    61    22    59    1
    62    23    26    1
    63    23    60    1
    64    23    61    1
    65    24    62    1
    66    24    63    1
    67    24    64    1
    68    25    26    1
    69    25    65    1
    70    25    66    1
    71    26    67    1
    72    26    68    1
    73    27    69    1
    74    27    70    1
    75    27    71    1
    76    28    72    1
    77    28    73    1
    78    28    74    1
    79    29    75    1
    80    29    76    1
    81    29    77    1
    82    30    78    1
    83    30    79    1
    84    30    80    1
