@<TRIPOS>MOLECULE
IMPHY012389
 96 97 0 0 0
SMALL
GASTEIGER

@<TRIPOS>ATOM
      1 O           6.8193   -3.0683    0.0000 O.3     1  UNL1       -0.4518
      2 O           7.1962   -1.2057    0.0000 O.2     1  UNL1       -0.2738
      3 O           8.9987   -1.3552    0.0000 O.2     1  UNL1       -0.2715
      4 O           4.5980    0.2942    0.0000 O.2     1  UNL1       -0.2735
      5 O           2.0000    2.7942    0.0000 O.2     1  UNL1       -0.2735
      6 O           7.0781   -2.1024    0.0000 O.2     1  UNL1       -0.2508
      7 O           2.8082   -0.5885    0.0000 O.2     1  UNL1       -0.2738
      8 N           8.0622   -0.7058    0.0000 N.am    1  UNL1       -0.2869
      9 N           5.4641   -0.2058    0.0000 N.am    1  UNL1       -0.3022
     10 N           4.5981    2.2942    0.0000 N.am    1  UNL1       -0.2912
     11 N           2.8660    1.2942    0.0000 N.am    1  UNL1       -0.2917
     12 N           4.4392   -0.9129    0.0000 N.am    1  UNL1       -0.3133
     13 C           7.1962   -0.2058    0.0000 C.3     1  UNL1        0.1023
     14 C           7.4054    0.7660    0.0000 C.3     1  UNL1       -0.0243
     15 C           8.3941    0.8691    0.0000 C.3     1  UNL1       -0.0350
     16 C           8.7992   -0.0387    0.0000 C.3     1  UNL1        0.0156
     17 C           5.4641    0.7942    0.0000 C.3     1  UNL1        0.1021
     18 C           6.3301   -0.7058    0.0000 C.2     1  UNL1        0.2342
     19 C           6.3301    1.2942    0.0000 C.3     1  UNL1       -0.0171
     20 C           8.0622   -1.7058    0.0000 C.2     1  UNL1        0.2571
     21 C           3.7320    2.7942    0.0000 C.3     1  UNL1        0.1046
     22 C           3.7320    3.7942    0.0000 C.3     1  UNL1       -0.0169
     23 C           7.7852   -2.8095    0.0000 C.3     1  UNL1        0.1787
     24 C           4.5981    1.2942    0.0000 C.2     1  UNL1        0.2365
     25 C           6.3301    2.2942    0.0000 C.3     1  UNL1       -0.0512
     26 C           8.4172   -3.5844    0.0000 C.3     1  UNL1       -0.0046
     27 C           7.1962    1.7942    0.0000 C.3     1  UNL1       -0.0603
     28 C           2.8660    4.2942    0.0000 C.3     1  UNL1       -0.0512
     29 C           2.8660    2.2942    0.0000 C.2     1  UNL1        0.2367
     30 C           8.0620   -4.5192    0.0000 C.3     1  UNL1       -0.0429
     31 C           4.5981    4.2942    0.0000 C.3     1  UNL1       -0.0603
     32 C           5.4641    2.7942    0.0000 C.3     1  UNL1        0.0040
     33 C           7.1962    2.7942    0.0000 C.3     1  UNL1       -0.0650
     34 C           3.7320    0.7942    0.0000 C.3     1  UNL1        0.0991
     35 C           2.8660    5.2942    0.0000 C.3     1  UNL1       -0.0650
     36 C           8.6940   -5.2942    0.0000 C.3     1  UNL1       -0.0625
     37 C           7.0749   -4.6791    0.0000 C.3     1  UNL1       -0.0625
     38 C           2.0000    0.7942    0.0000 C.3     1  UNL1        0.0040
     39 C           6.1122   -2.3612    0.0000 C.2     1  UNL1        0.3093
     40 C           3.7320   -0.2058    0.0000 C.2     1  UNL1        0.2333
     41 C           3.7320    1.7942    0.0000 C.3     1  UNL1       -0.0379
     42 C           5.1463   -2.6200    0.0000 C.3     1  UNL1        0.0605
     43 C           4.4392   -1.9129    0.0000 C.3     1  UNL1        0.0217
     44 H           6.5091    0.2947    0.0000 H       1  UNL1        0.0597
     45 H           7.4062    1.3860    0.0000 H       1  UNL1        0.0288
     46 H           6.7889    0.8321    0.0000 H       1  UNL1        0.0288
     47 H           8.9837    1.0609    0.0000 H       1  UNL1        0.0281
     48 H           8.2654    1.4756    0.0000 H       1  UNL1        0.0281
     49 H           9.1646   -0.5395    0.0000 H       1  UNL1        0.0465
     50 H           9.3357    0.2721    0.0000 H       1  UNL1        0.0465
     51 H           6.2002    0.3692    0.0000 H       1  UNL1        0.0597
     52 H           6.6401    0.7573    0.0000 H       1  UNL1        0.0321
     53 H           4.2690    3.1042    0.0000 H       1  UNL1        0.0599
     54 H           5.4641   -0.8258    0.0000 H       1  UNL1        0.1495
     55 H           3.7320    4.4142    0.0000 H       1  UNL1        0.0321
     56 H           7.5946   -3.3994    0.0000 H       1  UNL1        0.0832
     57 H           6.1181    2.8768    0.0000 H       1  UNL1        0.0266
     58 H           5.7196    2.1866    0.0000 H       1  UNL1        0.0266
     59 H           8.9497   -3.9019    0.0000 H       1  UNL1        0.0308
     60 H           8.8224   -3.1151    0.0000 H       1  UNL1        0.0308
     61 H           7.5062    1.2573    0.0000 H       1  UNL1        0.0233
     62 H           7.7331    2.1042    0.0000 H       1  UNL1        0.0233
     63 H           6.8862    2.3312    0.0000 H       1  UNL1        0.0233
     64 H           2.2554    4.4019    0.0000 H       1  UNL1        0.0266
     65 H           2.6540    3.7116    0.0000 H       1  UNL1        0.0266
     66 H           7.6702   -4.0388    0.0000 H       1  UNL1        0.0297
     67 H           4.9081    3.7573    0.0000 H       1  UNL1        0.0233
     68 H           5.1350    4.6042    0.0000 H       1  UNL1        0.0233
     69 H           4.2881    4.8312    0.0000 H       1  UNL1        0.0233
     70 H           5.7741    2.2573    0.0000 H       1  UNL1        0.0429
     71 H           6.0010    3.1042    0.0000 H       1  UNL1        0.0429
     72 H           5.1541    3.3312    0.0000 H       1  UNL1        0.0429
     73 H           7.5062    2.2573    0.0000 H       1  UNL1        0.0230
     74 H           7.7331    3.1042    0.0000 H       1  UNL1        0.0230
     75 H           6.8862    3.3312    0.0000 H       1  UNL1        0.0230
     76 H           3.4220    1.3312    0.0000 H       1  UNL1        0.0594
     77 H           3.4860    5.2942    0.0000 H       1  UNL1        0.0230
     78 H           2.8660    5.9142    0.0000 H       1  UNL1        0.0230
     79 H           2.2460    5.2942    0.0000 H       1  UNL1        0.0230
     80 H           8.2135   -5.6861    0.0000 H       1  UNL1        0.0232
     81 H           9.0859   -5.7747    0.0000 H       1  UNL1        0.0232
     82 H           9.1745   -4.9024    0.0000 H       1  UNL1        0.0232
     83 H           6.9758   -4.0670    0.0000 H       1  UNL1        0.0232
     84 H           6.4629   -4.7782    0.0000 H       1  UNL1        0.0232
     85 H           7.1740   -5.2911    0.0000 H       1  UNL1        0.0232
     86 H           1.6900    1.3312    0.0000 H       1  UNL1        0.0429
     87 H           1.4631    0.4842    0.0000 H       1  UNL1        0.0429
     88 H           2.3100    0.2573    0.0000 H       1  UNL1        0.0429
     89 H           4.3520    1.7942    0.0000 H       1  UNL1        0.0252
     90 H           3.7320    2.4142    0.0000 H       1  UNL1        0.0252
     91 H           3.1120    1.7942    0.0000 H       1  UNL1        0.0252
     92 H           4.6384   -2.9756    0.0000 H       1  UNL1        0.0393
     93 H           5.4083   -3.1819    0.0000 H       1  UNL1        0.0393
     94 H           3.8403   -1.7524    0.0000 H       1  UNL1        0.0467
     95 H           4.1292   -2.4498    0.0000 H       1  UNL1        0.0467
     96 H           4.9310   -1.2903    0.0000 H       1  UNL1        0.1487
@<TRIPOS>BOND
     1     1    23    1
     2     1    39    1
     3     2    18    2
     4     3    20    2
     5     4    24    2
     6     5    29    2
     7     6    39    2
     8     7    40    2
     9     8    13    1
    10     8    16    1
    11     8    20   am
    12     9    17    1
    13     9    18   am
    14     9    54    1
    15    10    21    1
    16    10    24   am
    17    10    32    1
    18    11    29   am
    19    11    34    1
    20    11    38    1
    21    12    40   am
    22    12    43    1
    23    12    96    1
    24    13    14    1
    25    13    18    1
    26    13    44    1
    27    14    15    1
    28    14    45    1
    29    14    46    1
    30    15    16    1
    31    15    47    1
    32    15    48    1
    33    16    49    1
    34    16    50    1
    35    17    19    1
    36    17    24    1
    37    17    51    1
    38    19    25    1
    39    19    27    1
    40    19    52    1
    41    20    23    1
    42    21    22    1
    43    21    29    1
    44    21    53    1
    45    22    28    1
    46    22    31    1
    47    22    55    1
    48    23    26    1
    49    23    56    1
    50    25    33    1
    51    25    57    1
    52    25    58    1
    53    26    30    1
    54    26    59    1
    55    26    60    1
    56    27    61    1
    57    27    62    1
    58    27    63    1
    59    28    35    1
    60    28    64    1
    61    28    65    1
    62    30    36    1
    63    30    37    1
    64    30    66    1
    65    31    67    1
    66    31    68    1
    67    31    69    1
    68    32    70    1
    69    32    71    1
    70    32    72    1
    71    33    73    1
    72    33    74    1
    73    33    75    1
    74    34    40    1
    75    34    41    1
    76    34    76    1
    77    35    77    1
    78    35    78    1
    79    35    79    1
    80    36    80    1
    81    36    81    1
    82    36    82    1
    83    37    83    1
    84    37    84    1
    85    37    85    1
    86    38    86    1
    87    38    87    1
    88    38    88    1
    89    39    42    1
    90    41    89    1
    91    41    90    1
    92    41    91    1
    93    42    43    1
    94    42    92    1
    95    42    93    1
    96    43    94    1
    97    43    95    1
