@<TRIPOS>MOLECULE
IMPHY015504
 42 42 0 0 0
SMALL
GASTEIGER

@<TRIPOS>ATOM
      1 O           3.7320   -1.7500    0.0000 O.3     1  UNL1       -0.4599
      2 O           2.8660   -0.2500    0.0000 O.2     1  UNL1       -0.2508
      3 C           5.4641    2.2500    0.0000 C.3     1  UNL1       -0.0530
      4 C           6.3301    2.7500    0.0000 C.3     1  UNL1       -0.0531
      5 C           5.4641    1.2500    0.0000 C.3     1  UNL1       -0.0526
      6 C           6.3301    3.7500    0.0000 C.3     1  UNL1       -0.0533
      7 C           4.5981    0.7500    0.0000 C.3     1  UNL1       -0.0430
      8 C           7.1962    4.2500    0.0000 C.3     1  UNL1       -0.0559
      9 C           4.5981   -0.2500    0.0000 C.3     1  UNL1        0.0449
     10 C           7.1962    5.2500    0.0000 C.3     1  UNL1       -0.0653
     11 C           3.7320   -0.7500    0.0000 C.2     1  UNL1        0.3074
     12 C           2.8660   -2.2500    0.0000 C.3     1  UNL1        0.1175
     13 C           2.8660   -3.2500    0.0000 C.ar    1  UNL1       -0.0103
     14 C           2.0000   -3.7500    0.0000 C.ar    1  UNL1       -0.0554
     15 C           3.7320   -3.7500    0.0000 C.ar    1  UNL1       -0.0554
     16 C           2.0000   -4.7500    0.0000 C.ar    1  UNL1       -0.0614
     17 C           3.7320   -4.7500    0.0000 C.ar    1  UNL1       -0.0614
     18 C           2.8660   -5.2500    0.0000 C.ar    1  UNL1       -0.0617
     19 H           5.2520    2.8326    0.0000 H       1  UNL1        0.0265
     20 H           4.8535    2.1423    0.0000 H       1  UNL1        0.0265
     21 H           6.5422    2.1674    0.0000 H       1  UNL1        0.0265
     22 H           6.9407    2.8577    0.0000 H       1  UNL1        0.0265
     23 H           5.6762    0.6674    0.0000 H       1  UNL1        0.0265
     24 H           6.0747    1.3577    0.0000 H       1  UNL1        0.0265
     25 H           6.1181    4.3326    0.0000 H       1  UNL1        0.0265
     26 H           5.7196    3.6423    0.0000 H       1  UNL1        0.0265
     27 H           4.3860    1.3326    0.0000 H       1  UNL1        0.0270
     28 H           3.9875    0.6423    0.0000 H       1  UNL1        0.0270
     29 H           7.4082    3.6674    0.0000 H       1  UNL1        0.0263
     30 H           7.8067    4.3577    0.0000 H       1  UNL1        0.0263
     31 H           4.8101   -0.8326    0.0000 H       1  UNL1        0.0377
     32 H           5.2087   -0.1423    0.0000 H       1  UNL1        0.0377
     33 H           7.8162    5.2500    0.0000 H       1  UNL1        0.0230
     34 H           7.1962    5.8700    0.0000 H       1  UNL1        0.0230
     35 H           6.5762    5.2500    0.0000 H       1  UNL1        0.0230
     36 H           2.6540   -1.6674    0.0000 H       1  UNL1        0.0749
     37 H           2.2554   -2.3577    0.0000 H       1  UNL1        0.0749
     38 H           1.4631   -3.4400    0.0000 H       1  UNL1        0.0621
     39 H           4.2690   -3.4400    0.0000 H       1  UNL1        0.0621
     40 H           1.4631   -5.0600    0.0000 H       1  UNL1        0.0618
     41 H           4.2690   -5.0600    0.0000 H       1  UNL1        0.0618
     42 H           2.8660   -5.8700    0.0000 H       1  UNL1        0.0618
@<TRIPOS>BOND
     1     1    11    1
     2     1    12    1
     3     2    11    2
     4     3     4    1
     5     3     5    1
     6     3    19    1
     7     3    20    1
     8     4     6    1
     9     4    21    1
    10     4    22    1
    11     5     7    1
    12     5    23    1
    13     5    24    1
    14     6     8    1
    15     6    25    1
    16     6    26    1
    17     7     9    1
    18     7    27    1
    19     7    28    1
    20     8    10    1
    21     8    29    1
    22     8    30    1
    23     9    11    1
    24     9    31    1
    25     9    32    1
    26    10    33    1
    27    10    34    1
    28    10    35    1
    29    12    13    1
    30    12    36    1
    31    12    37    1
    32    13    14   ar
    33    13    15   ar
    34    14    16   ar
    35    14    38    1
    36    15    17   ar
    37    15    39    1
    38    16    18   ar
    39    16    40    1
    40    17    18   ar
    41    17    41    1
    42    18    42    1
