@<TRIPOS>MOLECULE
IMPHY012770
 123 130 0 0 0
SMALL
GASTEIGER

@<TRIPOS>ATOM
      1 O          18.3182    1.8777    0.0000 O.3     1  UNL1       -0.3877
      2 O          12.9292    2.9508    0.0000 O.3     1  UNL1       -0.3480
      3 O          20.5108   -2.6934    0.0000 O.3     1  UNL1       -0.4571
      4 O          12.0632    1.4508    0.0000 O.3     1  UNL1       -0.3456
      5 O          19.2481   -3.9508    0.0000 O.2     1  UNL1       -0.2456
      6 O           9.4651    2.9508    0.0000 O.3     1  UNL1       -0.3890
      7 O           9.4651    0.9508    0.0000 O.3     1  UNL1       -0.3429
      8 O           8.5991    2.4508    0.0000 O.3     1  UNL1       -0.3456
      9 O           6.0010    2.9508    0.0000 O.3     1  UNL1       -0.3429
     10 O           6.0010    0.9508    0.0000 O.3     1  UNL1       -0.3890
     11 O           4.2690    2.9508    0.0000 O.3     1  UNL1       -0.3456
     12 O           4.2690   -0.0492    0.0000 O.3     1  UNL1       -0.4587
     13 O           2.5369    0.9508    0.0000 O.3     1  UNL1       -0.3856
     14 O           2.5369   -0.0492    0.0000 O.2     1  UNL1       -0.2512
     15 C          18.3144    0.8777    0.0000 C.3     1  UNL1        0.0751
     16 C          17.4503    1.3810    0.0000 C.3     1  UNL1       -0.0083
     17 C          16.5823    0.8844    0.0000 C.3     1  UNL1       -0.0299
     18 C          18.3105   -0.1223    0.0000 C.3     1  UNL1        0.0036
     19 C          15.6743    1.3947    0.0000 C.3     1  UNL1       -0.0259
     20 C          15.6703    2.4364    0.0000 C.3     1  UNL1       -0.0330
     21 C          16.5785   -0.1156    0.0000 C.3     1  UNL1       -0.0488
     22 C          17.4426   -0.6189    0.0000 C.3     1  UNL1       -0.0442
     23 C          19.2556   -0.4307    0.0000 C.3     1  UNL1       -0.0081
     24 C          17.4704    2.4225    0.0000 C.3     1  UNL1       -0.0470
     25 C          19.2618    1.1788    0.0000 C.3     1  UNL1       -0.0226
     26 C          16.5744    2.9537    0.0000 C.3     1  UNL1       -0.0493
     27 C          19.8423    0.3718    0.0000 C.3     1  UNL1       -0.0432
     28 C          14.7453    0.8342    0.0000 C.3     1  UNL1       -0.0448
     29 C          14.7370    2.9897    0.0000 C.3     1  UNL1       -0.0232
     30 C          18.3067   -1.1223    0.0000 C.3     1  UNL1       -0.0564
     31 C          15.6782    0.3947    0.0000 C.3     1  UNL1       -0.0590
     32 C          13.7994    1.3658    0.0000 C.3     1  UNL1       -0.0260
     33 C          13.7953    2.4508    0.0000 C.3     1  UNL1        0.0620
     34 C          19.5626   -1.3824    0.0000 C.2     1  UNL1       -0.0222
     35 C          20.5130   -1.6934    0.0000 C.3     1  UNL1        0.1147
     36 C          18.9731   -2.1901    0.0000 C.2     1  UNL1        0.0252
     37 C          12.0632    2.4508    0.0000 C.3     1  UNL1        0.1624
     38 C          19.5591   -3.0004    0.0000 C.2     1  UNL1        0.3323
     39 C          11.1972    2.9508    0.0000 C.3     1  UNL1        0.0270
     40 C          10.3312    2.4508    0.0000 C.3     1  UNL1        0.0884
     41 C          11.1972    0.9508    0.0000 C.3     1  UNL1        0.0875
     42 C          10.3312    1.4508    0.0000 C.3     1  UNL1        0.1134
     43 C          11.1972   -0.0492    0.0000 C.3     1  UNL1       -0.0361
     44 C           8.5991    1.4508    0.0000 C.3     1  UNL1        0.1626
     45 C           7.7331    0.9508    0.0000 C.3     1  UNL1        0.0270
     46 C           6.8671    1.4508    0.0000 C.3     1  UNL1        0.0884
     47 C           7.7331    2.9508    0.0000 C.3     1  UNL1        0.0875
     48 C           6.8671    2.4508    0.0000 C.3     1  UNL1        0.1134
     49 C           7.7331    3.9508    0.0000 C.3     1  UNL1       -0.0361
     50 C           5.1350    2.4508    0.0000 C.3     1  UNL1        0.1636
     51 C           5.1350    1.4508    0.0000 C.3     1  UNL1        0.0381
     52 C           4.2690    0.9508    0.0000 C.3     1  UNL1        0.1358
     53 C           3.4030    1.4508    0.0000 C.3     1  UNL1        0.1180
     54 C           3.4030    2.4508    0.0000 C.3     1  UNL1        0.0882
     55 C           2.5369    2.9508    0.0000 C.3     1  UNL1       -0.0360
     56 C           3.4030   -0.5492    0.0000 C.2     1  UNL1        0.3043
     57 C           3.4030   -1.5492    0.0000 C.3     1  UNL1        0.0332
     58 H          18.1913    1.7975    0.0000 H       1  UNL1        0.0331
     59 H          17.3168    0.4565    0.0000 H       1  UNL1        0.0310
     60 H          15.6768    3.2863    0.0000 H       1  UNL1        0.0307
     61 H          15.9683   -0.0056    0.0000 H       1  UNL1        0.0268
     62 H          16.3642   -0.6974    0.0000 H       1  UNL1        0.0268
     63 H          17.0422   -1.0924    0.0000 H       1  UNL1        0.0272
     64 H          17.8393   -1.0954    0.0000 H       1  UNL1        0.0272
     65 H          19.8677   -0.5292    0.0000 H       1  UNL1        0.0353
     66 H          18.0791    2.3046    0.0000 H       1  UNL1        0.0269
     67 H          17.6906    3.0020    0.0000 H       1  UNL1        0.0269
     68 H          19.8003    1.4859    0.0000 H       1  UNL1        0.0293
     69 H          19.0129    1.7466    0.0000 H       1  UNL1        0.0293
     70 H          16.9771    3.4250    0.0000 H       1  UNL1        0.0268
     71 H          16.1789    3.4312    0.0000 H       1  UNL1        0.0268
     72 H          20.3015   -0.0447    0.0000 H       1  UNL1        0.0272
     73 H          20.3047    0.7848    0.0000 H       1  UNL1        0.0272
     74 H          14.3535    0.3537    0.0000 H       1  UNL1        0.0271
     75 H          15.1517    0.3660    0.0000 H       1  UNL1        0.0271
     76 H          15.1398    3.4610    0.0000 H       1  UNL1        0.0293
     77 H          14.3415    3.4672    0.0000 H       1  UNL1        0.0293
     78 H          17.6867   -1.1199    0.0000 H       1  UNL1        0.0236
     79 H          18.3043   -1.7423    0.0000 H       1  UNL1        0.0236
     80 H          18.9267   -1.1247    0.0000 H       1  UNL1        0.0236
     81 H          15.0582    0.3923    0.0000 H       1  UNL1        0.0235
     82 H          15.6805   -0.2253    0.0000 H       1  UNL1        0.0235
     83 H          16.2981    0.3971    0.0000 H       1  UNL1        0.0235
     84 H          13.1882    1.4696    0.0000 H       1  UNL1        0.0290
     85 H          13.5926    0.7813    0.0000 H       1  UNL1        0.0290
     86 H          13.7965    3.0708    0.0000 H       1  UNL1        0.0597
     87 H          18.8564    2.1856    0.0000 H       1  UNL1        0.2102
     88 H          21.1294   -1.7595    0.0000 H       1  UNL1        0.0746
     89 H          20.6431   -1.0872    0.0000 H       1  UNL1        0.0746
     90 H          18.3531   -2.1888    0.0000 H       1  UNL1        0.0689
     91 H          12.0632    3.0708    0.0000 H       1  UNL1        0.0910
     92 H          11.5957    3.4258    0.0000 H       1  UNL1        0.0340
     93 H          10.7987    3.4258    0.0000 H       1  UNL1        0.0340
     94 H          10.3312    3.0708    0.0000 H       1  UNL1        0.0622
     95 H          11.7341    0.6408    0.0000 H       1  UNL1        0.0621
     96 H           9.7942    1.7608    0.0000 H       1  UNL1        0.0649
     97 H          10.5772   -0.0492    0.0000 H       1  UNL1        0.0255
     98 H          11.1972   -0.6692    0.0000 H       1  UNL1        0.0255
     99 H          11.8172   -0.0492    0.0000 H       1  UNL1        0.0255
    100 H           9.4651    3.5708    0.0000 H       1  UNL1        0.2099
    101 H           8.5991    0.8308    0.0000 H       1  UNL1        0.0910
    102 H           7.3346    0.4759    0.0000 H       1  UNL1        0.0340
    103 H           8.1316    0.4759    0.0000 H       1  UNL1        0.0340
    104 H           6.3301    1.7608    0.0000 H       1  UNL1        0.0622
    105 H           8.2700    3.2608    0.0000 H       1  UNL1        0.0621
    106 H           6.8671    3.0708    0.0000 H       1  UNL1        0.0649
    107 H           8.3531    3.9508    0.0000 H       1  UNL1        0.0255
    108 H           7.7331    4.5708    0.0000 H       1  UNL1        0.0255
    109 H           7.1131    3.9508    0.0000 H       1  UNL1        0.0255
    110 H           6.0010    0.3308    0.0000 H       1  UNL1        0.2099
    111 H           5.1350    3.0708    0.0000 H       1  UNL1        0.0911
    112 H           5.3471    0.8682    0.0000 H       1  UNL1        0.0351
    113 H           5.7456    1.5585    0.0000 H       1  UNL1        0.0351
    114 H           4.8059    0.6408    0.0000 H       1  UNL1        0.0762
    115 H           2.8660    1.7608    0.0000 H       1  UNL1        0.0656
    116 H           3.4030    3.0708    0.0000 H       1  UNL1        0.0621
    117 H           2.8469    3.4877    0.0000 H       1  UNL1        0.0255
    118 H           2.0000    3.2608    0.0000 H       1  UNL1        0.0255
    119 H           2.2269    2.4139    0.0000 H       1  UNL1        0.0255
    120 H           2.0000    1.2608    0.0000 H       1  UNL1        0.2100
    121 H           2.7830   -1.5492    0.0000 H       1  UNL1        0.0342
    122 H           3.4030   -2.1692    0.0000 H       1  UNL1        0.0342
    123 H           4.0230   -1.5492    0.0000 H       1  UNL1        0.0342
@<TRIPOS>BOND
     1    15     1    1
     2     1    87    1
     3    33     2    1
     4    37     2    1
     5     3    35    1
     6     3    38    1
     7     4    37    1
     8     4    41    1
     9     5    38    2
    10    40     6    1
    11     6   100    1
    12    42     7    1
    13    44     7    1
    14     8    44    1
    15     8    47    1
    16    48     9    1
    17    50     9    1
    18    46    10    1
    19    10   110    1
    20    11    50    1
    21    11    54    1
    22    52    12    1
    23    12    56    1
    24    53    13    1
    25    13   120    1
    26    14    56    2
    27    15    16    1
    28    15    18    1
    29    15    25    1
    30    16    17    1
    31    16    24    1
    32    16    58    1
    33    17    19    1
    34    17    21    1
    35    17    59    1
    36    18    22    1
    37    18    23    1
    38    18    30    1
    39    19    20    1
    40    19    28    1
    41    19    31    1
    42    20    26    1
    43    20    29    1
    44    20    60    1
    45    21    22    1
    46    21    61    1
    47    21    62    1
    48    22    63    1
    49    22    64    1
    50    23    27    1
    51    23    34    1
    52    23    65    1
    53    24    26    1
    54    24    66    1
    55    24    67    1
    56    25    27    1
    57    25    68    1
    58    25    69    1
    59    26    70    1
    60    26    71    1
    61    27    72    1
    62    27    73    1
    63    28    32    1
    64    28    74    1
    65    28    75    1
    66    29    33    1
    67    29    76    1
    68    29    77    1
    69    30    78    1
    70    30    79    1
    71    30    80    1
    72    31    81    1
    73    31    82    1
    74    31    83    1
    75    32    33    1
    76    32    84    1
    77    32    85    1
    78    33    86    1
    79    34    35    1
    80    34    36    2
    81    35    88    1
    82    35    89    1
    83    36    38    1
    84    36    90    1
    85    37    39    1
    86    37    91    1
    87    39    40    1
    88    39    92    1
    89    39    93    1
    90    40    42    1
    91    40    94    1
    92    41    42    1
    93    41    43    1
    94    41    95    1
    95    42    96    1
    96    43    97    1
    97    43    98    1
    98    43    99    1
    99    44    45    1
   100    44   101    1
   101    45    46    1
   102    45   102    1
   103    45   103    1
   104    46    48    1
   105    46   104    1
   106    47    48    1
   107    47    49    1
   108    47   105    1
   109    48   106    1
   110    49   107    1
   111    49   108    1
   112    49   109    1
   113    50    51    1
   114    50   111    1
   115    51    52    1
   116    51   112    1
   117    51   113    1
   118    52    53    1
   119    52   114    1
   120    53    54    1
   121    53   115    1
   122    54    55    1
   123    54   116    1
   124    55   117    1
   125    55   118    1
   126    55   119    1
   127    56    57    1
   128    57   121    1
   129    57   122    1
   130    57   123    1
