@<TRIPOS>MOLECULE
IMPHY015877
 53 52 0 0 0
SMALL
GASTEIGER

@<TRIPOS>ATOM
      1 O           4.2690   -1.0600    0.0000 O.2     1  UNL1       -0.2745
      2 N           3.4030    0.4400    0.0000 N.am    1  UNL1       -0.2536
      3 N           2.5369   -0.0600    0.0000 N.3     1  UNL1       -0.2544
      4 C          11.1972   -0.0600    0.0000 C.3     1  UNL1       -0.0531
      5 C          10.3312    0.4400    0.0000 C.3     1  UNL1       -0.0531
      6 C          12.0632    0.4400    0.0000 C.3     1  UNL1       -0.0531
      7 C           9.4651   -0.0600    0.0000 C.3     1  UNL1       -0.0531
      8 C          12.9292   -0.0600    0.0000 C.3     1  UNL1       -0.0531
      9 C           8.5991    0.4400    0.0000 C.3     1  UNL1       -0.0531
     10 C          13.7953    0.4400    0.0000 C.3     1  UNL1       -0.0531
     11 C           7.7331   -0.0600    0.0000 C.3     1  UNL1       -0.0530
     12 C          14.6613   -0.0600    0.0000 C.3     1  UNL1       -0.0531
     13 C           6.8671    0.4400    0.0000 C.3     1  UNL1       -0.0526
     14 C          15.5273    0.4400    0.0000 C.3     1  UNL1       -0.0533
     15 C           6.0010   -0.0600    0.0000 C.3     1  UNL1       -0.0448
     16 C          16.3933   -0.0600    0.0000 C.3     1  UNL1       -0.0559
     17 C           5.1350    0.4400    0.0000 C.3     1  UNL1        0.0252
     18 C          17.2594    0.4400    0.0000 C.3     1  UNL1       -0.0653
     19 C           4.2690   -0.0600    0.0000 C.2     1  UNL1        0.2263
     20 H          10.7987   -0.5349    0.0000 H       1  UNL1        0.0265
     21 H          11.5957   -0.5349    0.0000 H       1  UNL1        0.0265
     22 H          10.7297    0.9149    0.0000 H       1  UNL1        0.0265
     23 H           9.9326    0.9149    0.0000 H       1  UNL1        0.0265
     24 H          12.4617    0.9149    0.0000 H       1  UNL1        0.0265
     25 H          11.6647    0.9149    0.0000 H       1  UNL1        0.0265
     26 H           9.0666   -0.5349    0.0000 H       1  UNL1        0.0265
     27 H           9.8637   -0.5349    0.0000 H       1  UNL1        0.0265
     28 H          12.5307   -0.5349    0.0000 H       1  UNL1        0.0265
     29 H          13.3278   -0.5349    0.0000 H       1  UNL1        0.0265
     30 H           8.9976    0.9149    0.0000 H       1  UNL1        0.0265
     31 H           8.2006    0.9149    0.0000 H       1  UNL1        0.0265
     32 H          14.1938    0.9149    0.0000 H       1  UNL1        0.0265
     33 H          13.3967    0.9149    0.0000 H       1  UNL1        0.0265
     34 H           7.3346   -0.5349    0.0000 H       1  UNL1        0.0265
     35 H           8.1316   -0.5349    0.0000 H       1  UNL1        0.0265
     36 H          14.2628   -0.5349    0.0000 H       1  UNL1        0.0265
     37 H          15.0598   -0.5349    0.0000 H       1  UNL1        0.0265
     38 H           7.2656    0.9149    0.0000 H       1  UNL1        0.0265
     39 H           6.4685    0.9149    0.0000 H       1  UNL1        0.0265
     40 H          15.9258    0.9149    0.0000 H       1  UNL1        0.0265
     41 H          15.1288    0.9149    0.0000 H       1  UNL1        0.0265
     42 H           5.6025   -0.5349    0.0000 H       1  UNL1        0.0270
     43 H           6.3996   -0.5349    0.0000 H       1  UNL1        0.0270
     44 H          15.9948   -0.5349    0.0000 H       1  UNL1        0.0263
     45 H          16.7919   -0.5349    0.0000 H       1  UNL1        0.0263
     46 H           5.5335    0.9149    0.0000 H       1  UNL1        0.0359
     47 H           4.7365    0.9149    0.0000 H       1  UNL1        0.0359
     48 H          17.5694   -0.0969    0.0000 H       1  UNL1        0.0230
     49 H          17.7963    0.7500    0.0000 H       1  UNL1        0.0230
     50 H          16.9494    0.9769    0.0000 H       1  UNL1        0.0230
     51 H           3.4030    1.0600    0.0000 H       1  UNL1        0.1687
     52 H           2.0000    0.2500    0.0000 H       1  UNL1        0.1405
     53 H           2.5369   -0.6800    0.0000 H       1  UNL1        0.1405
@<TRIPOS>BOND
     1     1    19    2
     2     2     3    1
     3     2    19   am
     4     2    51    1
     5     3    52    1
     6     3    53    1
     7     4     5    1
     8     4     6    1
     9     4    20    1
    10     4    21    1
    11     5     7    1
    12     5    22    1
    13     5    23    1
    14     6     8    1
    15     6    24    1
    16     6    25    1
    17     7     9    1
    18     7    26    1
    19     7    27    1
    20     8    10    1
    21     8    28    1
    22     8    29    1
    23     9    11    1
    24     9    30    1
    25     9    31    1
    26    10    12    1
    27    10    32    1
    28    10    33    1
    29    11    13    1
    30    11    34    1
    31    11    35    1
    32    12    14    1
    33    12    36    1
    34    12    37    1
    35    13    15    1
    36    13    38    1
    37    13    39    1
    38    14    16    1
    39    14    40    1
    40    14    41    1
    41    15    17    1
    42    15    42    1
    43    15    43    1
    44    16    18    1
    45    16    44    1
    46    16    45    1
    47    17    19    1
    48    17    46    1
    49    17    47    1
    50    18    48    1
    51    18    49    1
    52    18    50    1
