@<TRIPOS>MOLECULE
IMPHY002367
 34 36 0 0 0
SMALL
GASTEIGER

@<TRIPOS>ATOM
      1 O        2517.3200 2573.1500    0.0000 O.3     1  UNL1       -0.4427
      2 C        2482.6800 2553.1000    0.0000 C.2     1  UNL1        0.3415
      3 O        2482.6800 2513.1000    0.0000 O.2     1  UNL1       -0.2449
      4 C        2448.0400 2573.1500    0.0000 C.ar    1  UNL1        0.0822
      5 C        2448.0400 2613.1500    0.0000 C.ar    1  UNL1        0.0520
      6 C        2413.4000 2633.1000    0.0000 C.ar    1  UNL1        0.2377
      7 O        2413.4000 2673.1000    0.0000 O.3     1  UNL1       -0.2830
      8 C        2378.7600 2613.1500    0.0000 C.ar    1  UNL1        0.2727
      9 C        2378.7600 2573.1500    0.0000 C.ar    1  UNL1        0.2377
     10 C        2413.4000 2553.1000    0.0000 C.ar    1  UNL1        0.0520
     11 O        2344.1200 2553.1000    0.0000 O.3     1  UNL1       -0.2830
     12 O        2344.1200 2633.1000    0.0000 O.3     1  UNL1       -0.2797
     13 C        2551.9600 2553.1000    0.0000 C.3     1  UNL1        0.2410
     14 C        2551.9600 2513.1000    0.0000 C.3     1  UNL1        0.2466
     15 O        2508.1900 2486.9000    0.0000 O.3     1  UNL1       -0.4424
     16 C        2508.1900 2446.9000    0.0000 C.2     1  UNL1        0.3415
     17 O        2542.8300 2426.8500    0.0000 O.2     1  UNL1       -0.2449
     18 C        2473.6500 2426.8500    0.0000 C.ar    1  UNL1        0.0822
     19 C        2473.6500 2386.8500    0.0000 C.ar    1  UNL1        0.0520
     20 C        2439.0100 2366.9000    0.0000 C.ar    1  UNL1        0.2377
     21 O        2439.0100 2326.9000    0.0000 O.3     1  UNL1       -0.2830
     22 C        2404.3700 2386.8500    0.0000 C.ar    1  UNL1        0.2727
     23 C        2404.3700 2426.8500    0.0000 C.ar    1  UNL1        0.2377
     24 C        2439.0100 2446.9000    0.0000 C.ar    1  UNL1        0.0520
     25 O        2369.7300 2446.9000    0.0000 O.3     1  UNL1       -0.2830
     26 O        2370.0200 2366.3000    0.0000 O.3     1  UNL1       -0.2797
     27 C        2586.7000 2493.1500    0.0000 C.3     1  UNL1        0.2541
     28 O        2586.7000 2453.1500    0.0000 O.3     1  UNL1       -0.2135
     29 C        2621.2400 2513.1000    0.0000 C.3     1  UNL1        0.3035
     30 O        2621.2400 2553.1000    0.0000 O.3     1  UNL1       -0.3224
     31 C        2586.7000 2573.1500    0.0000 C.3     1  UNL1        0.1943
     32 C        2586.7000 2613.1500    0.0000 C.3     1  UNL1        0.2154
     33 O        2552.0600 2633.1000    0.0000 O.3     1  UNL1       -0.2176
     34 O        2655.8800 2493.1500    0.0000 O.3     1  UNL1       -0.1869
@<TRIPOS>BOND
     1     1     2    1
     2     2     3    2
     3     2     4    1
     4     4     5   ar
     5     4    10   ar
     6     5     6   ar
     7     6     7    1
     8     6     8   ar
     9     8    12    1
    10     9     8   ar
    11     9    11    1
    12    10     9   ar
    13    13     1    1
    14    13    14    1
    15    13    31    1
    16    14    15    1
    17    14    27    1
    18    15    16    1
    19    16    17    2
    20    16    18    1
    21    18    19   ar
    22    18    24   ar
    23    19    20   ar
    24    20    21    1
    25    20    22   ar
    26    22    26    1
    27    23    22   ar
    28    23    25    1
    29    24    23   ar
    30    27    28    1
    31    27    29    1
    32    29    34    1
    33    30    29    1
    34    31    30    1
    35    31    32    1
    36    32    33    1
