@<TRIPOS>MOLECULE
IMPHY014491
 30 30 0 0 0
SMALL
GASTEIGER

@<TRIPOS>ATOM
      1 C           4.5981    0.5000    0.0000 C.3     1  UNL1        0.0109
      2 C           5.4641   -0.0000    0.0000 C.3     1  UNL1       -0.0367
      3 C           3.7320    0.0000    0.0000 C.2     1  UNL1       -0.0393
      4 C           5.4641   -1.0000    0.0000 C.3     1  UNL1       -0.0334
      5 C           4.0981    1.3660    0.0000 C.3     1  UNL1       -0.0520
      6 C           5.0981    1.3660    0.0000 C.2     1  UNL1       -0.0809
      7 C           3.7320   -1.0000    0.0000 C.2     1  UNL1       -0.0617
      8 C           4.5981   -1.5000    0.0000 C.2     1  UNL1       -0.0837
      9 C           2.8660    0.5000    0.0000 C.2     1  UNL1       -0.0717
     10 C           2.0000    0.0000    0.0000 C.3     1  UNL1       -0.0435
     11 C           2.8660    1.5000    0.0000 C.3     1  UNL1       -0.0435
     12 C           6.0981    1.3660    0.0000 C.2     1  UNL1       -0.1018
     13 H           6.0747   -0.1077    0.0000 H       1  UNL1        0.0280
     14 H           5.6762    0.5826    0.0000 H       1  UNL1        0.0280
     15 H           5.6762   -1.5826    0.0000 H       1  UNL1        0.0308
     16 H           6.0747   -0.8923    0.0000 H       1  UNL1        0.0308
     17 H           4.6350    1.6760    0.0000 H       1  UNL1        0.0241
     18 H           3.7881    1.9030    0.0000 H       1  UNL1        0.0241
     19 H           3.5611    1.0560    0.0000 H       1  UNL1        0.0241
     20 H           4.7881    1.9030    0.0000 H       1  UNL1        0.0575
     21 H           3.1951   -1.3100    0.0000 H       1  UNL1        0.0617
     22 H           4.5981   -2.1200    0.0000 H       1  UNL1        0.0572
     23 H           1.6900    0.5369    0.0000 H       1  UNL1        0.0274
     24 H           1.4631   -0.3100    0.0000 H       1  UNL1        0.0274
     25 H           2.3100   -0.5369    0.0000 H       1  UNL1        0.0274
     26 H           3.4860    1.5000    0.0000 H       1  UNL1        0.0274
     27 H           2.8660    2.1200    0.0000 H       1  UNL1        0.0274
     28 H           2.2460    1.5000    0.0000 H       1  UNL1        0.0274
     29 H           6.4081    0.8291    0.0000 H       1  UNL1        0.0532
     30 H           6.4081    1.9030    0.0000 H       1  UNL1        0.0532
@<TRIPOS>BOND
     1     1     2    1
     2     1     3    1
     3     1     5    1
     4     1     6    1
     5     2     4    1
     6     2    13    1
     7     2    14    1
     8     3     7    1
     9     3     9    2
    10     4     8    1
    11     4    15    1
    12     4    16    1
    13     5    17    1
    14     5    18    1
    15     5    19    1
    16     6    12    2
    17     6    20    1
    18     7     8    2
    19     7    21    1
    20     8    22    1
    21     9    10    1
    22     9    11    1
    23    10    23    1
    24    10    24    1
    25    10    25    1
    26    11    26    1
    27    11    27    1
    28    11    28    1
    29    12    29    1
    30    12    30    1
