@<TRIPOS>MOLECULE
IMPHY017648
 38 39 0 0 0
SMALL
GASTEIGER

@<TRIPOS>ATOM
      1 O           4.3710    1.0408    0.0000 O.3     1  UNL1       -0.4602
      2 O           2.8710    1.9068    0.0000 O.2     1  UNL1       -0.2505
      3 C           1.9943   -1.7650    0.0000 C.3     1  UNL1       -0.0185
      4 C           3.1344   -0.8079    0.0000 C.3     1  UNL1        0.0060
      5 C           3.3932   -1.7738    0.0000 C.3     1  UNL1        0.0228
      6 C           3.8710    0.1747    0.0000 C.3     1  UNL1        0.1136
      7 C           5.1677   -1.1190    0.0000 C.3     1  UNL1       -0.0278
      8 C           4.6143   -2.6395    0.0000 C.2     1  UNL1       -0.0694
      9 C           1.1283   -1.2650    0.0000 C.3     1  UNL1       -0.0588
     10 C           1.4943   -2.6310    0.0000 C.3     1  UNL1       -0.0588
     11 C           5.4433   -2.0803    0.0000 C.2     1  UNL1       -0.0842
     12 C           4.5794   -3.6388    0.0000 C.3     1  UNL1       -0.0434
     13 C           3.8710    1.9068    0.0000 C.2     1  UNL1        0.3100
     14 C           4.3710    2.7728    0.0000 C.3     1  UNL1        0.0508
     15 C           3.8710    3.6388    0.0000 C.3     1  UNL1       -0.0525
     16 C           5.3710    2.7728    0.0000 C.3     1  UNL1       -0.0525
     17 H           2.9144    0.0132    0.0000 H       1  UNL1        0.0345
     18 H           3.6132   -2.5948    0.0000 H       1  UNL1        0.0387
     19 H           3.3536    0.5163    0.0000 H       1  UNL1        0.0743
     20 H           5.1727   -0.4990    0.0000 H       1  UNL1        0.0311
     21 H           5.7820   -1.0352    0.0000 H       1  UNL1        0.0311
     22 H           0.8183   -1.8019    0.0000 H       1  UNL1        0.0235
     23 H           0.5913   -0.9550    0.0000 H       1  UNL1        0.0235
     24 H           1.4383   -0.7280    0.0000 H       1  UNL1        0.0235
     25 H           2.0312   -2.9410    0.0000 H       1  UNL1        0.0235
     26 H           1.1843   -3.1679    0.0000 H       1  UNL1        0.0235
     27 H           0.9574   -2.3210    0.0000 H       1  UNL1        0.0235
     28 H           6.0259   -2.2923    0.0000 H       1  UNL1        0.0572
     29 H           5.1990   -3.6605    0.0000 H       1  UNL1        0.0274
     30 H           4.5577   -4.2585    0.0000 H       1  UNL1        0.0274
     31 H           3.9598   -3.6172    0.0000 H       1  UNL1        0.0274
     32 H           4.6810    3.3098    0.0000 H       1  UNL1        0.0408
     33 H           3.3341    3.3288    0.0000 H       1  UNL1        0.0237
     34 H           3.5610    4.1758    0.0000 H       1  UNL1        0.0237
     35 H           4.4080    3.9488    0.0000 H       1  UNL1        0.0237
     36 H           5.3710    3.3928    0.0000 H       1  UNL1        0.0237
     37 H           5.9910    2.7728    0.0000 H       1  UNL1        0.0237
     38 H           5.3710    2.1528    0.0000 H       1  UNL1        0.0237
@<TRIPOS>BOND
     1     1     6    1
     2     1    13    1
     3     2    13    2
     4     3     4    1
     5     3     5    1
     6     3     9    1
     7     3    10    1
     8     4     6    1
     9     4     7    1
    10     4    17    1
    11     5     6    1
    12     5     8    1
    13     5    18    1
    14     6    19    1
    15     7    11    1
    16     7    20    1
    17     7    21    1
    18     8    11    2
    19     8    12    1
    20     9    22    1
    21     9    23    1
    22     9    24    1
    23    10    25    1
    24    10    26    1
    25    10    27    1
    26    11    28    1
    27    12    29    1
    28    12    30    1
    29    12    31    1
    30    13    14    1
    31    14    15    1
    32    14    16    1
    33    14    32    1
    34    15    33    1
    35    15    34    1
    36    15    35    1
    37    16    36    1
    38    16    37    1
    39    16    38    1
