@<TRIPOS>MOLECULE
IMPHY010728
 29 31 0 0 0
SMALL
GASTEIGER

@<TRIPOS>ATOM
      1 O           5.1350    0.0950    0.0000 O.3     1  UNL1       -0.3157
      2 O           6.0010   -1.4050    0.0000 O.3     1  UNL1       -0.4475
      3 O           2.5369   -1.4050    0.0000 O.3     1  UNL1       -0.2173
      4 O           2.5369    0.5950    0.0000 O.3     1  UNL1       -0.2176
      5 O           4.2690   -2.4050    0.0000 O.3     1  UNL1       -0.2135
      6 O           5.1350    2.0950    0.0000 O.3     1  UNL1       -0.2176
      7 O           9.4931    0.6297    0.0000 O.2     1  UNL1       -0.4570
      8 O           6.0010    0.5950    0.0000 O.3     1  UNL1       -0.2832
      9 O           9.4815   -2.4396    0.0000 O.2     1  UNL1       -0.2864
     10 O          12.1350   -0.8775    0.0000 O.2     1  UNL1       -0.2956
     11 C           3.4030   -0.9050    0.0000 C.3     1  UNL1        0.2211
     12 C           3.4030    0.0950    0.0000 C.3     1  UNL1        0.2145
     13 C           4.2690   -1.4050    0.0000 C.3     1  UNL1        0.2542
     14 C           4.2690    0.5950    0.0000 C.3     1  UNL1        0.1846
     15 C           5.1350   -0.9050    0.0000 C.3     1  UNL1        0.3219
     16 C           4.2690    1.5950    0.0000 C.3     1  UNL1        0.2142
     17 C           6.8671   -0.9050    0.0000 C.ar    1  UNL1        0.1763
     18 C           7.7331   -1.4050    0.0000 C.ar    1  UNL1        0.0215
     19 C           8.5991   -0.9050    0.0000 C.ar    1  UNL1        0.0727
     20 C           6.8671    0.0950    0.0000 C.ar    1  UNL1        0.2321
     21 C           8.5991    0.0950    0.0000 C.ar    1  UNL1        0.1509
     22 C           7.7331    0.5950    0.0000 C.ar    1  UNL1        0.0827
     23 C           7.7331   -2.4050    0.0000 C.3     1  UNL1        0.0345
     24 C           9.4931   -1.4397    0.0000 C.ar    1  UNL1        0.2011
     25 C          10.3991    0.1158    0.0000 C.ar    1  UNL1        0.1334
     26 C          10.3991   -0.9258    0.0000 C.ar    1  UNL1        0.0755
     27 C          11.2632    0.6191    0.0000 C.3     1  UNL1        0.1289
     28 C          12.1312    0.1225    0.0000 C.2     1  UNL1        0.1587
     29 C          12.9953    0.6258    0.0000 C.3     1  UNL1        0.0727
@<TRIPOS>BOND
     1     1    14    1
     2     1    15    1
     3     2    17    1
     4     6    16    1
     5     7    21   ar
     6     7    25   ar
     7     8    20    1
     8     9    24    2
     9    10    28    2
    10    11     3    1
    11    11    12    1
    12    11    13    1
    13    12     4    1
    14    12    14    1
    15    13     5    1
    16    13    15    1
    17    14    16    1
    18    15     2    1
    19    17    18   ar
    20    17    20   ar
    21    18    19   ar
    22    18    23    1
    23    19    21   ar
    24    19    24   ar
    25    20    22   ar
    26    21    22   ar
    27    24    26   ar
    28    25    26   ar
    29    25    27    1
    30    27    28    1
    31    28    29    1
