@<TRIPOS>MOLECULE
IMPHY013909
 37 39 0 0 0
SMALL
GASTEIGER

@<TRIPOS>ATOM
      1 O           4.6660   -0.7500    0.0000 O.2     1  UNL1       -0.4595
      2 O          10.7282   -2.2500    0.0000 O.3     1  UNL1       -0.4951
      3 O           4.6660    2.2500    0.0000 O.2     1  UNL1       -0.2870
      4 C           6.3981   -0.7500    0.0000 C.3     1  UNL1        0.0096
      5 C           7.2641   -0.2500    0.0000 C.3     1  UNL1       -0.0208
      6 C           5.5321   -0.2500    0.0000 C.ar    1  UNL1        0.1096
      7 C           8.1301   -0.7500    0.0000 C.ar    1  UNL1       -0.0467
      8 C           3.8000    0.7500    0.0000 C.ar    1  UNL1        0.0640
      9 C           3.8000   -0.2500    0.0000 C.ar    1  UNL1        0.1387
     10 C           5.5321    0.7500    0.0000 C.ar    1  UNL1        0.0239
     11 C           4.6660    1.2500    0.0000 C.ar    1  UNL1        0.1927
     12 C           8.1301   -1.7500    0.0000 C.ar    1  UNL1       -0.0551
     13 C           8.9962   -0.2500    0.0000 C.ar    1  UNL1       -0.0551
     14 C           2.9061    1.2847    0.0000 C.ar    1  UNL1       -0.0474
     15 C           2.9061   -0.7847    0.0000 C.ar    1  UNL1       -0.0186
     16 C           8.9962   -2.2500    0.0000 C.ar    1  UNL1       -0.0197
     17 C           9.8622   -0.7500    0.0000 C.ar    1  UNL1       -0.0197
     18 C           9.8622   -1.7500    0.0000 C.ar    1  UNL1        0.1201
     19 C           2.0000    0.7708    0.0000 C.ar    1  UNL1       -0.0609
     20 C           2.0000   -0.2708    0.0000 C.ar    1  UNL1       -0.0582
     21 C          11.5942   -1.7500    0.0000 C.3     1  UNL1        0.0788
     22 H           5.9996   -1.2250    0.0000 H       1  UNL1        0.0347
     23 H           6.7966   -1.2250    0.0000 H       1  UNL1        0.0347
     24 H           7.6626    0.2249    0.0000 H       1  UNL1        0.0317
     25 H           6.8656    0.2249    0.0000 H       1  UNL1        0.0317
     26 H           6.0690    1.0600    0.0000 H       1  UNL1        0.0689
     27 H           7.5932   -2.0600    0.0000 H       1  UNL1        0.0621
     28 H           8.9962    0.3700    0.0000 H       1  UNL1        0.0621
     29 H           2.9132    1.9046    0.0000 H       1  UNL1        0.0626
     30 H           2.9132   -1.4046    0.0000 H       1  UNL1        0.0654
     31 H           8.9962   -2.8700    0.0000 H       1  UNL1        0.0654
     32 H          10.3991   -0.4400    0.0000 H       1  UNL1        0.0654
     33 H           1.4643    1.0829    0.0000 H       1  UNL1        0.0618
     34 H           1.4643   -0.5829    0.0000 H       1  UNL1        0.0619
     35 H          11.9042   -2.2869    0.0000 H       1  UNL1        0.0660
     36 H          12.1312   -1.4400    0.0000 H       1  UNL1        0.0660
     37 H          11.2842   -1.2131    0.0000 H       1  UNL1        0.0660
@<TRIPOS>BOND
     1     1     6   ar
     2     1     9   ar
     3     2    18    1
     4     2    21    1
     5     3    11    2
     6     4     5    1
     7     4     6    1
     8     4    22    1
     9     4    23    1
    10     5     7    1
    11     5    24    1
    12     5    25    1
    13     6    10   ar
    14     7    12   ar
    15     7    13   ar
    16     8     9   ar
    17     8    11   ar
    18     8    14   ar
    19     9    15   ar
    20    10    11   ar
    21    10    26    1
    22    12    16   ar
    23    12    27    1
    24    13    17   ar
    25    13    28    1
    26    14    19   ar
    27    14    29    1
    28    15    20   ar
    29    15    30    1
    30    16    18   ar
    31    16    31    1
    32    17    18   ar
    33    17    32    1
    34    19    20   ar
    35    19    33    1
    36    20    34    1
    37    21    35    1
    38    21    36    1
    39    21    37    1
