@<TRIPOS>MOLECULE
IMPHY001959
 165 172 0 0 0
SMALL
GASTEIGER

@<TRIPOS>ATOM
      1 O           5.0578    4.2172    0.0000 O.3     1  UNL1       -0.3910
      2 O           7.7331   -3.5350    0.0000 O.3     1  UNL1       -0.3448
      3 O           5.9577    5.8195    0.0000 O.3     1  UNL1       -0.4570
      4 O           7.7732    6.8584    0.0000 O.3     1  UNL1       -0.4538
      5 O           5.3338    5.5180    0.0000 O.3     1  UNL1       -0.3942
      6 O           5.3023   -1.1113    0.0000 O.3     1  UNL1       -0.3944
      7 O           6.0010   -3.5350    0.0000 O.3     1  UNL1       -0.3315
      8 O           7.7331   -5.5350    0.0000 O.3     1  UNL1       -0.3378
      9 O           6.8237    7.3196    0.0000 O.2     1  UNL1       -0.2512
     10 O           9.5052    6.8450    0.0000 O.2     1  UNL1       -0.2453
     11 O           6.0010   -6.5350    0.0000 O.3     1  UNL1       -0.3864
     12 O           4.2690   -5.5350    0.0000 O.3     1  UNL1       -0.3396
     13 O           8.5991   -4.0350    0.0000 O.3     1  UNL1       -0.3405
     14 O           4.2690   -2.5349    0.0000 O.3     1  UNL1       -0.4788
     15 O           3.4030   -4.0350    0.0000 O.2     1  UNL1       -0.2480
     16 O           5.1350   -7.0350    0.0000 O.3     1  UNL1       -0.3405
     17 O           9.4651   -6.5350    0.0000 O.3     1  UNL1       -0.3841
     18 O          11.1972   -5.5350    0.0000 O.3     1  UNL1       -0.3864
     19 O          11.1972   -3.5350    0.0000 O.3     1  UNL1       -0.3865
     20 O           2.5369   -6.5350    0.0000 O.3     1  UNL1       -0.3841
     21 O           2.5369   -8.5350    0.0000 O.3     1  UNL1       -0.3864
     22 O          10.3312   -2.0349    0.0000 O.3     1  UNL1       -0.3924
     23 O           4.2690   -9.5350    0.0000 O.3     1  UNL1       -0.3865
     24 O           6.0010   -9.5350    0.0000 O.3     1  UNL1       -0.3924
     25 C           6.8320    1.1653    0.0000 C.3     1  UNL1       -0.0193
     26 C           7.6961    0.6619    0.0000 C.3     1  UNL1       -0.0257
     27 C           7.7082   -0.3796    0.0000 C.3     1  UNL1       -0.0249
     28 C           6.8359    2.1653    0.0000 C.3     1  UNL1       -0.0028
     29 C           6.8081   -0.9039    0.0000 C.3     1  UNL1       -0.0255
     30 C           5.9201    0.6619    0.0000 C.3     1  UNL1       -0.0463
     31 C           7.7038    2.6619    0.0000 C.2     1  UNL1       -0.0630
     32 C           7.7239    3.7034    0.0000 C.3     1  UNL1       -0.0051
     33 C           6.8279    4.2346    0.0000 C.3     1  UNL1        0.0666
     34 C           5.9080   -0.3796    0.0000 C.3     1  UNL1       -0.0485
     35 C           6.7956   -1.9888    0.0000 C.3     1  UNL1        0.0206
     36 C           5.9278    2.6756    0.0000 C.3     1  UNL1       -0.0165
     37 C           8.5641    1.1586    0.0000 C.3     1  UNL1       -0.0306
     38 C           8.6581   -0.9039    0.0000 C.3     1  UNL1       -0.0447
     39 C           5.9238    3.7172    0.0000 C.3     1  UNL1        0.0678
     40 C           5.8479    1.3427    0.0000 C.3     1  UNL1       -0.0585
     41 C           7.7331   -2.5349    0.0000 C.3     1  UNL1        0.0695
     42 C           8.5679    2.1586    0.0000 C.2     1  UNL1       -0.0836
     43 C           8.5723    0.1237    0.0000 C.3     1  UNL1       -0.0590
     44 C           8.6778    4.2203    0.0000 C.3     1  UNL1       -0.0370
     45 C           8.6706   -1.9888    0.0000 C.3     1  UNL1       -0.0254
     46 C           5.8504    1.9954    0.0000 C.3     1  UNL1       -0.0552
     47 C           6.8237    5.3195    0.0000 C.3     1  UNL1        0.1508
     48 C           8.6987    5.3051    0.0000 C.3     1  UNL1        0.0063
     49 C           7.7654    5.8584    0.0000 C.3     1  UNL1        0.1458
     50 C           5.9677    4.7446    0.0000 C.3     1  UNL1        0.0563
     51 C           5.7956   -1.9811    0.0000 C.3     1  UNL1        0.0522
     52 C           6.2889   -2.8510    0.0000 C.3     1  UNL1       -0.0548
     53 C           9.6986    5.2897    0.0000 C.3     1  UNL1       -0.0563
     54 C           9.2120    6.1633    0.0000 C.3     1  UNL1       -0.0563
     55 C           6.8671   -4.0350    0.0000 C.3     1  UNL1        0.1892
     56 C           5.9577    6.8196    0.0000 C.2     1  UNL1        0.3043
     57 C           6.8671   -5.0350    0.0000 C.3     1  UNL1        0.1407
     58 C           8.6430    7.3517    0.0000 C.2     1  UNL1        0.3350
     59 C           6.0010   -5.5350    0.0000 C.3     1  UNL1        0.1153
     60 C           5.1350   -4.0350    0.0000 C.3     1  UNL1        0.1863
     61 C           5.1350   -5.0350    0.0000 C.3     1  UNL1        0.1267
     62 C           5.0917    7.3196    0.0000 C.3     1  UNL1        0.0332
     63 C           8.6507    8.3517    0.0000 C.2     1  UNL1        0.0293
     64 C           8.5991   -5.0350    0.0000 C.3     1  UNL1        0.1885
     65 C           4.2690   -3.5350    0.0000 C.2     1  UNL1        0.3367
     66 C           7.7886    8.8583    0.0000 C.3     1  UNL1       -0.0333
     67 C           9.5206    8.8450    0.0000 C.2     1  UNL1       -0.0774
     68 C           9.4651   -5.5350    0.0000 C.3     1  UNL1        0.1341
     69 C           4.2690   -6.5350    0.0000 C.3     1  UNL1        0.1885
     70 C          10.3312   -5.0350    0.0000 C.3     1  UNL1        0.1141
     71 C           9.5283    9.8450    0.0000 C.3     1  UNL1       -0.0461
     72 C           9.4651   -3.5350    0.0000 C.3     1  UNL1        0.1130
     73 C          10.3312   -4.0350    0.0000 C.3     1  UNL1        0.1119
     74 C           3.4030   -7.0350    0.0000 C.3     1  UNL1        0.1341
     75 C           3.4030   -8.0350    0.0000 C.3     1  UNL1        0.1141
     76 C           5.1350   -8.0350    0.0000 C.3     1  UNL1        0.1130
     77 C           9.4651   -2.5349    0.0000 C.3     1  UNL1        0.0730
     78 C           4.2690   -8.5350    0.0000 C.3     1  UNL1        0.1119
     79 C           6.0010   -8.5350    0.0000 C.3     1  UNL1        0.0730
     80 H           8.4339    0.2398    0.0000 H       1  UNL1        0.0315
     81 H           6.0687   -1.3232    0.0000 H       1  UNL1        0.0313
     82 H           5.7178    1.2480    0.0000 H       1  UNL1        0.0271
     83 H           5.3080    0.5629    0.0000 H       1  UNL1        0.0271
     84 H           8.4500    3.2614    0.0000 H       1  UNL1        0.0354
     85 H           5.2984   -0.2665    0.0000 H       1  UNL1        0.0268
     86 H           5.6922   -0.9609    0.0000 H       1  UNL1        0.0268
     87 H           5.3166    2.7794    0.0000 H       1  UNL1        0.0299
     88 H           5.7210    2.0911    0.0000 H       1  UNL1        0.0299
     89 H           8.7739    0.5752    0.0000 H       1  UNL1        0.0310
     90 H           9.1751    1.2639    0.0000 H       1  UNL1        0.0310
     91 H           9.2701   -1.0029    0.0000 H       1  UNL1        0.0271
     92 H           8.8604   -0.3178    0.0000 H       1  UNL1        0.0271
     93 H           5.3875    3.4062    0.0000 H       1  UNL1        0.0601
     94 H           5.9579    1.9529    0.0000 H       1  UNL1        0.0235
     95 H           5.2377    1.4527    0.0000 H       1  UNL1        0.0235
     96 H           5.7379    0.7325    0.0000 H       1  UNL1        0.0235
     97 H           8.2706   -2.8439    0.0000 H       1  UNL1        0.0603
     98 H           9.1060    2.4665    0.0000 H       1  UNL1        0.0572
     99 H           8.8843   -0.4120    0.0000 H       1  UNL1        0.0235
    100 H           9.1080    0.4358    0.0000 H       1  UNL1        0.0235
    101 H           8.2602    0.6594    0.0000 H       1  UNL1        0.0235
    102 H           8.8756    3.6327    0.0000 H       1  UNL1        0.0278
    103 H           9.2906    4.3146    0.0000 H       1  UNL1        0.0278
    104 H           8.8864   -2.5701    0.0000 H       1  UNL1        0.0290
    105 H           9.2802   -1.8757    0.0000 H       1  UNL1        0.0290
    106 H           5.7451    2.6064    0.0000 H       1  UNL1        0.0238
    107 H           5.2394    1.8902    0.0000 H       1  UNL1        0.0238
    108 H           5.9557    1.3844    0.0000 H       1  UNL1        0.0238
    109 H           6.8249    5.9396    0.0000 H       1  UNL1        0.0779
    110 H           8.3053    6.1632    0.0000 H       1  UNL1        0.0777
    111 H           5.3717    4.5736    0.0000 H       1  UNL1        0.0565
    112 H           6.3717    5.2149    0.0000 H       1  UNL1        0.0565
    113 H           5.2114   -2.1887    0.0000 H       1  UNL1        0.0563
    114 H           5.8985   -2.5925    0.0000 H       1  UNL1        0.0563
    115 H           5.7544   -2.5368    0.0000 H       1  UNL1        0.0237
    116 H           5.9748   -3.3855    0.0000 H       1  UNL1        0.0237
    117 H           6.8234   -3.1651    0.0000 H       1  UNL1        0.0237
    118 H           4.5209    3.9072    0.0000 H       1  UNL1        0.2098
    119 H           9.7441    5.8451    0.0000 H       1  UNL1        0.0236
    120 H           9.5303    6.6954    0.0000 H       1  UNL1        0.0236
    121 H           8.6799    6.4816    0.0000 H       1  UNL1        0.0236
    122 H           9.6891    4.6697    0.0000 H       1  UNL1        0.0236
    123 H          10.3185    5.2801    0.0000 H       1  UNL1        0.0236
    124 H           9.7082    5.9096    0.0000 H       1  UNL1        0.0236
    125 H           4.7220    5.4174    0.0000 H       1  UNL1        0.2094
    126 H           6.8671   -3.4150    0.0000 H       1  UNL1        0.0938
    127 H           4.6823   -1.1065    0.0000 H       1  UNL1        0.2094
    128 H           7.4040   -4.7250    0.0000 H       1  UNL1        0.0675
    129 H           6.5380   -5.8450    0.0000 H       1  UNL1        0.0648
    130 H           5.1350   -3.4150    0.0000 H       1  UNL1        0.0742
    131 H           4.5981   -4.7250    0.0000 H       1  UNL1        0.0655
    132 H           5.4017    7.8565    0.0000 H       1  UNL1        0.0342
    133 H           4.5547    7.6296    0.0000 H       1  UNL1        0.0342
    134 H           4.7817    6.7826    0.0000 H       1  UNL1        0.0342
    135 H           8.5991   -5.6550    0.0000 H       1  UNL1        0.0938
    136 H           6.5380   -6.8450    0.0000 H       1  UNL1        0.2100
    137 H           8.1027    9.3929    0.0000 H       1  UNL1        0.0280
    138 H           7.2540    9.1725    0.0000 H       1  UNL1        0.0280
    139 H           7.4744    8.3238    0.0000 H       1  UNL1        0.0280
    140 H          10.0551    8.5308    0.0000 H       1  UNL1        0.0574
    141 H          10.0021   -5.8450    0.0000 H       1  UNL1        0.0671
    142 H           3.7320   -6.2250    0.0000 H       1  UNL1        0.0938
    143 H          10.8681   -4.7250    0.0000 H       1  UNL1        0.0648
    144 H          10.1483    9.8402    0.0000 H       1  UNL1        0.0272
    145 H           9.5330   10.4649    0.0000 H       1  UNL1        0.0272
    146 H           8.9083    9.8497    0.0000 H       1  UNL1        0.0272
    147 H           8.9282   -3.2250    0.0000 H       1  UNL1        0.0647
    148 H           3.7320   -2.2250    0.0000 H       1  UNL1        0.2951
    149 H          10.3312   -3.4150    0.0000 H       1  UNL1        0.0647
    150 H           3.9650   -6.4150    0.0000 H       1  UNL1        0.0671
    151 H           8.9282   -6.8450    0.0000 H       1  UNL1        0.2101
    152 H           3.4030   -8.6550    0.0000 H       1  UNL1        0.0648
    153 H           5.6720   -7.7250    0.0000 H       1  UNL1        0.0647
    154 H           9.2531   -1.9523    0.0000 H       1  UNL1        0.0584
    155 H           8.8546   -2.6426    0.0000 H       1  UNL1        0.0584
    156 H           4.8059   -8.8450    0.0000 H       1  UNL1        0.0647
    157 H          11.7341   -5.2250    0.0000 H       1  UNL1        0.2100
    158 H          11.1972   -2.9150    0.0000 H       1  UNL1        0.2100
    159 H           2.0000   -6.8450    0.0000 H       1  UNL1        0.2101
    160 H           6.6116   -8.6426    0.0000 H       1  UNL1        0.0584
    161 H           6.2131   -7.9523    0.0000 H       1  UNL1        0.0584
    162 H           2.5369   -9.1550    0.0000 H       1  UNL1        0.2100
    163 H          10.3312   -1.4150    0.0000 H       1  UNL1        0.2095
    164 H           3.7320   -9.8450    0.0000 H       1  UNL1        0.2100
    165 H           6.5380   -9.8450    0.0000 H       1  UNL1        0.2095
@<TRIPOS>BOND
     1    39     1    1
     2     1   118    1
     3    41     2    1
     4    55     2    1
     5    47     3    1
     6     3    56    1
     7    49     4    1
     8     4    58    1
     9     5    50    1
    10     5   125    1
    11     6    51    1
    12     6   127    1
    13     7    55    1
    14     7    60    1
    15    57     8    1
    16    64     8    1
    17     9    56    2
    18    10    58    2
    19    59    11    1
    20    11   136    1
    21    61    12    1
    22    69    12    1
    23    13    64    1
    24    13    72    1
    25    14    65    1
    26    14   148    1
    27    15    65    2
    28    16    69    1
    29    16    76    1
    30    68    17    1
    31    17   151    1
    32    70    18    1
    33    18   157    1
    34    73    19    1
    35    19   158    1
    36    74    20    1
    37    20   159    1
    38    75    21    1
    39    21   162    1
    40    22    77    1
    41    22   163    1
    42    78    23    1
    43    23   164    1
    44    24    79    1
    45    24   165    1
    46    25    26    1
    47    25    28    1
    48    25    30    1
    49    25    40    1
    50    26    27    1
    51    26    37    1
    52    26    80    1
    53    27    29    1
    54    27    38    1
    55    27    43    1
    56    28    31    1
    57    28    36    1
    58    28    46    1
    59    29    34    1
    60    29    35    1
    61    29    81    1
    62    30    34    1
    63    30    82    1
    64    30    83    1
    65    31    32    1
    66    31    42    2
    67    32    33    1
    68    32    44    1
    69    32    84    1
    70    33    39    1
    71    33    47    1
    72    33    50    1
    73    34    85    1
    74    34    86    1
    75    35    41    1
    76    35    51    1
    77    35    52    1
    78    36    39    1
    79    36    87    1
    80    36    88    1
    81    37    42    1
    82    37    89    1
    83    37    90    1
    84    38    45    1
    85    38    91    1
    86    38    92    1
    87    39    93    1
    88    40    94    1
    89    40    95    1
    90    40    96    1
    91    41    45    1
    92    41    97    1
    93    42    98    1
    94    43    99    1
    95    43   100    1
    96    43   101    1
    97    44    48    1
    98    44   102    1
    99    44   103    1
   100    45   104    1
   101    45   105    1
   102    46   106    1
   103    46   107    1
   104    46   108    1
   105    47    49    1
   106    47   109    1
   107    48    49    1
   108    48    53    1
   109    48    54    1
   110    49   110    1
   111    50   111    1
   112    50   112    1
   113    51   113    1
   114    51   114    1
   115    52   115    1
   116    52   116    1
   117    52   117    1
   118    53   122    1
   119    53   123    1
   120    53   124    1
   121    54   119    1
   122    54   120    1
   123    54   121    1
   124    55    57    1
   125    55   126    1
   126    56    62    1
   127    57    59    1
   128    57   128    1
   129    58    63    1
   130    59    61    1
   131    59   129    1
   132    60    61    1
   133    60    65    1
   134    60   130    1
   135    61   131    1
   136    62   132    1
   137    62   133    1
   138    62   134    1
   139    63    66    1
   140    63    67    2
   141    64    68    1
   142    64   135    1
   143    66   137    1
   144    66   138    1
   145    66   139    1
   146    67    71    1
   147    67   140    1
   148    68    70    1
   149    68   141    1
   150    69    74    1
   151    69   142    1
   152    70    73    1
   153    70   143    1
   154    71   144    1
   155    71   145    1
   156    71   146    1
   157    72    73    1
   158    72    77    1
   159    72   147    1
   160    73   149    1
   161    74    75    1
   162    74   150    1
   163    75    78    1
   164    75   152    1
   165    76    78    1
   166    76    79    1
   167    76   153    1
   168    77   154    1
   169    77   155    1
   170    78   156    1
   171    79   160    1
   172    79   161    1
