@<TRIPOS>MOLECULE
IMPHY003141
 35 36 0 0 0
SMALL
GASTEIGER

@<TRIPOS>ATOM
      1 O           3.7320   -1.2500    0.0000 O.3     1  UNL1       -0.3878
      2 C           3.7320    0.7500    0.0000 C.3     1  UNL1       -0.0030
      3 C           3.7320   -0.2500    0.0000 C.3     1  UNL1        0.0740
      4 C           2.8660   -0.7500    0.0000 C.3     1  UNL1       -0.0144
      5 C           2.8660    1.2500    0.0000 C.3     1  UNL1       -0.0450
      6 C           4.6260    1.2847    0.0000 C.3     1  UNL1       -0.0450
      7 C           4.6260   -0.7847    0.0000 C.3     1  UNL1       -0.0232
      8 C           2.0000   -0.2500    0.0000 C.3     1  UNL1       -0.0478
      9 C           2.0000    0.7500    0.0000 C.3     1  UNL1       -0.0521
     10 C           5.5321    0.7708    0.0000 C.3     1  UNL1       -0.0524
     11 C           5.5321   -0.2708    0.0000 C.3     1  UNL1       -0.0504
     12 C           3.7320    1.7500    0.0000 C.3     1  UNL1       -0.0569
     13 C           2.8660   -1.7500    0.0000 C.3     1  UNL1       -0.0598
     14 H           2.3291   -1.0600    0.0000 H       1  UNL1        0.0326
     15 H           3.2646    1.7250    0.0000 H       1  UNL1        0.0271
     16 H           2.4675    1.7250    0.0000 H       1  UNL1        0.0271
     17 H           5.0196    1.7637    0.0000 H       1  UNL1        0.0271
     18 H           4.2214    1.7544    0.0000 H       1  UNL1        0.0271
     19 H           4.2214   -1.2544    0.0000 H       1  UNL1        0.0293
     20 H           5.0196   -1.2637    0.0000 H       1  UNL1        0.0293
     21 H           1.3894   -0.1423    0.0000 H       1  UNL1        0.0269
     22 H           1.7880   -0.8326    0.0000 H       1  UNL1        0.0269
     23 H           1.7880    1.3326    0.0000 H       1  UNL1        0.0266
     24 H           1.3894    0.6423    0.0000 H       1  UNL1        0.0266
     25 H           6.1429    0.6647    0.0000 H       1  UNL1        0.0265
     26 H           5.7411    1.3545    0.0000 H       1  UNL1        0.0265
     27 H           5.7411   -0.8545    0.0000 H       1  UNL1        0.0266
     28 H           6.1429   -0.1647    0.0000 H       1  UNL1        0.0266
     29 H           4.3520    1.7500    0.0000 H       1  UNL1        0.0236
     30 H           3.7320    2.3700    0.0000 H       1  UNL1        0.0236
     31 H           3.1120    1.7500    0.0000 H       1  UNL1        0.0236
     32 H           2.2460   -1.7500    0.0000 H       1  UNL1        0.0233
     33 H           2.8660   -2.3700    0.0000 H       1  UNL1        0.0233
     34 H           3.4860   -1.7500    0.0000 H       1  UNL1        0.0233
     35 H           4.2690   -1.5600    0.0000 H       1  UNL1        0.2102
@<TRIPOS>BOND
     1     3     1    1
     2     1    35    1
     3     2     3    1
     4     2     5    1
     5     2     6    1
     6     2    12    1
     7     3     4    1
     8     3     7    1
     9     4     8    1
    10     4    13    1
    11     4    14    1
    12     5     9    1
    13     5    15    1
    14     5    16    1
    15     6    10    1
    16     6    17    1
    17     6    18    1
    18     7    11    1
    19     7    19    1
    20     7    20    1
    21     8     9    1
    22     8    21    1
    23     8    22    1
    24     9    23    1
    25     9    24    1
    26    10    11    1
    27    10    25    1
    28    10    26    1
    29    11    27    1
    30    11    28    1
    31    12    29    1
    32    12    30    1
    33    12    31    1
    34    13    32    1
    35    13    33    1
    36    13    34    1
