@<TRIPOS>MOLECULE
IMPHY002501
 57 59 0 0 0
SMALL
GASTEIGER

@<TRIPOS>ATOM
      1 O           3.2697    1.8661    0.0000 O.3     1  UNL1       -0.4568
      2 O           7.4665    1.8661    0.0000 O.3     1  UNL1       -0.4612
      3 O           3.8200   -1.8276    0.0000 O.3     1  UNL1       -0.4571
      4 O           3.6551    3.5548    0.0000 O.2     1  UNL1       -0.2511
      5 O           7.0811    3.5548    0.0000 O.2     1  UNL1       -0.2512
      6 O           5.3805   -2.5791    0.0000 O.2     1  UNL1       -0.2511
      7 C           5.3681    0.2348    0.0000 C.3     1  UNL1        0.0106
      8 C           5.4750    1.4116    0.0000 C.3     1  UNL1       -0.0183
      9 C           4.8681    2.4254    0.0000 C.3     1  UNL1        0.0094
     10 C           6.2691    0.6687    0.0000 C.3     1  UNL1        0.0034
     11 C           4.4671    0.6687    0.0000 C.2     1  UNL1       -0.0197
     12 C           4.2446    1.6436    0.0000 C.3     1  UNL1        0.1284
     13 C           5.2321   -0.7499    0.0000 C.3     1  UNL1       -0.0014
     14 C           5.8681    2.4254    0.0000 C.3     1  UNL1       -0.0084
     15 C           6.4916    1.6436    0.0000 C.3     1  UNL1        0.1068
     16 C           4.2538   -0.9266    0.0000 C.3     1  UNL1        0.1251
     17 C           3.7820   -0.0516    0.0000 C.2     1  UNL1       -0.0294
     18 C           6.3705    2.1331    0.0000 C.3     1  UNL1       -0.0586
     19 C           6.5948    1.1501    0.0000 C.3     1  UNL1       -0.0586
     20 C           7.0509    0.0452    0.0000 C.3     1  UNL1       -0.0582
     21 C           2.7908    0.0809    0.0000 C.3     1  UNL1       -0.0399
     22 C           2.9749    2.8217    0.0000 C.2     1  UNL1        0.3045
     23 C           7.7613    2.8217    0.0000 C.2     1  UNL1        0.3042
     24 C           4.3833   -2.6538    0.0000 C.2     1  UNL1        0.3045
     25 C           2.0000    3.0442    0.0000 C.3     1  UNL1        0.0333
     26 C           8.7362    3.0442    0.0000 C.3     1  UNL1        0.0332
     27 C           3.9494   -3.5548    0.0000 C.3     1  UNL1        0.0333
     28 H           4.6790    3.2541    0.0000 H       1  UNL1        0.0346
     29 H           6.8543    0.8735    0.0000 H       1  UNL1        0.0342
     30 H           3.8062    1.2052    0.0000 H       1  UNL1        0.0785
     31 H           5.2776   -1.3683    0.0000 H       1  UNL1        0.0313
     32 H           5.8518   -0.7697    0.0000 H       1  UNL1        0.0313
     33 H           6.4267    2.6944    0.0000 H       1  UNL1        0.0305
     34 H           5.7301    3.0299    0.0000 H       1  UNL1        0.0305
     35 H           6.6964    2.2288    0.0000 H       1  UNL1        0.0737
     36 H           4.6292   -1.4200    0.0000 H       1  UNL1        0.0782
     37 H           6.7594    1.6503    0.0000 H       1  UNL1        0.0235
     38 H           6.4538    0.5463    0.0000 H       1  UNL1        0.0235
     39 H           6.8533    2.5220    0.0000 H       1  UNL1        0.0235
     40 H           5.9815    2.6159    0.0000 H       1  UNL1        0.0235
     41 H           7.1986    1.0091    0.0000 H       1  UNL1        0.0235
     42 H           6.7358    1.7538    0.0000 H       1  UNL1        0.0235
     43 H           6.6643   -0.4395    0.0000 H       1  UNL1        0.0234
     44 H           7.5356   -0.3414    0.0000 H       1  UNL1        0.0234
     45 H           7.4375    0.5299    0.0000 H       1  UNL1        0.0234
     46 H           2.8730    0.6954    0.0000 H       1  UNL1        0.0276
     47 H           2.1763    0.1631    0.0000 H       1  UNL1        0.0276
     48 H           2.7087   -0.5336    0.0000 H       1  UNL1        0.0276
     49 H           2.1380    3.6487    0.0000 H       1  UNL1        0.0342
     50 H           1.3955    3.1822    0.0000 H       1  UNL1        0.0342
     51 H           1.8620    2.4398    0.0000 H       1  UNL1        0.0342
     52 H           8.8742    2.4398    0.0000 H       1  UNL1        0.0342
     53 H           9.3407    3.1822    0.0000 H       1  UNL1        0.0342
     54 H           8.5982    3.6487    0.0000 H       1  UNL1        0.0342
     55 H           3.3908   -3.2858    0.0000 H       1  UNL1        0.0342
     56 H           3.6804   -4.1134    0.0000 H       1  UNL1        0.0342
     57 H           4.5080   -3.8238    0.0000 H       1  UNL1        0.0342
@<TRIPOS>BOND
     1    12     1    1
     2     1    22    1
     3    15     2    1
     4     2    23    1
     5    16     3    1
     6     3    24    1
     7     4    22    2
     8     5    23    2
     9     6    24    2
    10     7     8    1
    11     7    10    1
    12     7    11    1
    13     7    13    1
    14     8     9    1
    15     8    18    1
    16     8    19    1
    17     9    12    1
    18     9    14    1
    19     9    28    1
    20    10    15    1
    21    10    20    1
    22    10    29    1
    23    11    12    1
    24    11    17    2
    25    12    30    1
    26    13    16    1
    27    13    31    1
    28    13    32    1
    29    14    15    1
    30    14    33    1
    31    14    34    1
    32    15    35    1
    33    16    17    1
    34    16    36    1
    35    17    21    1
    36    18    37    1
    37    18    39    1
    38    18    40    1
    39    19    38    1
    40    19    41    1
    41    19    42    1
    42    20    43    1
    43    20    44    1
    44    20    45    1
    45    21    46    1
    46    21    47    1
    47    21    48    1
    48    22    25    1
    49    23    26    1
    50    24    27    1
    51    25    49    1
    52    25    50    1
    53    25    51    1
    54    26    52    1
    55    26    53    1
    56    26    54    1
    57    27    55    1
    58    27    56    1
    59    27    57    1
