@<TRIPOS>MOLECULE
IMPHY000211
 54 58 0 0 0
SMALL
GASTEIGER

@<TRIPOS>ATOM
      1 O           4.2690   -0.6296    0.0000 O.3     1  UNL1       -0.3339
      2 O           6.0010   -0.6296    0.0000 O.3     1  UNL1       -0.4601
      3 O           4.2690   -3.6296    0.0000 O.3     1  UNL1       -0.3864
      4 O           2.5369   -2.6296    0.0000 O.3     1  UNL1       -0.3866
      5 O           6.0010   -2.6296    0.0000 O.3     1  UNL1       -0.3829
      6 O           7.7771    2.3772    0.0000 O.2     1  UNL1       -0.4214
      7 O           8.5830    1.9119    0.0000 O.2     1  UNL1       -0.4214
      8 O           6.8671   -1.1296    0.0000 O.3     1  UNL1       -0.5060
      9 O           8.6530    3.9155    0.0000 O.2     1  UNL1       -0.2452
     10 O           9.4772    3.4396    0.0000 O.2     1  UNL1       -0.2452
     11 C           4.2690   -2.6296    0.0000 C.3     1  UNL1        0.1151
     12 C           3.4030   -2.1296    0.0000 C.3     1  UNL1        0.1096
     13 C           5.1350   -2.1296    0.0000 C.3     1  UNL1        0.1454
     14 C           3.4030   -1.1296    0.0000 C.3     1  UNL1        0.0883
     15 C           5.1350   -1.1296    0.0000 C.3     1  UNL1        0.2307
     16 C           2.5369   -0.6296    0.0000 C.3     1  UNL1       -0.0360
     17 C           6.0010    0.3704    0.0000 C.ar    1  UNL1        0.1355
     18 C           6.8671    0.8704    0.0000 C.ar    1  UNL1        0.0738
     19 C           7.7331    0.3704    0.0000 C.ar    1  UNL1        0.0735
     20 C           6.8671    1.8704    0.0000 C.ar    1  UNL1        0.1505
     21 C           5.1350    0.8704    0.0000 C.ar    1  UNL1       -0.0184
     22 C           6.0010    2.3704    0.0000 C.ar    1  UNL1        0.0185
     23 C           5.1350    1.8704    0.0000 C.ar    1  UNL1       -0.0476
     24 C           8.5991    0.8704    0.0000 C.ar    1  UNL1        0.1504
     25 C           7.7331   -0.6296    0.0000 C.ar    1  UNL1        0.1283
     26 C           9.4651    0.3704    0.0000 C.ar    1  UNL1        0.0185
     27 C           5.9850    3.4119    0.0000 C.ar    1  UNL1       -0.0443
     28 C           8.5991   -1.1296    0.0000 C.ar    1  UNL1       -0.0188
     29 C           9.4651   -0.6296    0.0000 C.ar    1  UNL1       -0.0476
     30 C           6.8830    3.9396    0.0000 C.ar    1  UNL1        0.0236
     31 C          10.3751    0.8772    0.0000 C.ar    1  UNL1       -0.0443
     32 C           7.7851    3.4188    0.0000 C.ar    1  UNL1        0.3372
     33 C          10.3832    1.9188    0.0000 C.ar    1  UNL1        0.0236
     34 C           9.4811    2.4396    0.0000 C.ar    1  UNL1        0.3372
     35 H           4.8059   -2.9396    0.0000 H       1  UNL1        0.0648
     36 H           3.4030   -2.7496    0.0000 H       1  UNL1        0.0646
     37 H           5.6720   -1.8196    0.0000 H       1  UNL1        0.0683
     38 H           3.4030   -0.5096    0.0000 H       1  UNL1        0.0621
     39 H           5.1350   -0.5096    0.0000 H       1  UNL1        0.1084
     40 H           2.8469   -0.0927    0.0000 H       1  UNL1        0.0255
     41 H           2.0000   -0.3196    0.0000 H       1  UNL1        0.0255
     42 H           2.2269   -1.1666    0.0000 H       1  UNL1        0.0255
     43 H           3.7320   -3.9396    0.0000 H       1  UNL1        0.2100
     44 H           2.0000   -2.3196    0.0000 H       1  UNL1        0.2100
     45 H           6.0010   -3.2496    0.0000 H       1  UNL1        0.2102
     46 H           4.5981    0.5604    0.0000 H       1  UNL1        0.0654
     47 H           4.5981    2.1804    0.0000 H       1  UNL1        0.0626
     48 H           5.4445    3.7156    0.0000 H       1  UNL1        0.0627
     49 H           8.5991   -1.7496    0.0000 H       1  UNL1        0.0654
     50 H          10.0021   -0.9396    0.0000 H       1  UNL1        0.0626
     51 H           6.8806    4.5596    0.0000 H       1  UNL1        0.0689
     52 H          10.9085    0.5610    0.0000 H       1  UNL1        0.0627
     53 H          10.9213    2.2267    0.0000 H       1  UNL1        0.0689
     54 H           6.8671   -1.7496    0.0000 H       1  UNL1        0.2922
@<TRIPOS>BOND
     1     1    14    1
     2     1    15    1
     3    15     2    1
     4     2    17    1
     5    11     3    1
     6     3    43    1
     7    12     4    1
     8     4    44    1
     9    13     5    1
    10     5    45    1
    11     6    20   ar
    12     6    32   ar
    13     7    24   ar
    14     7    34   ar
    15     8    25    1
    16     8    54    1
    17     9    32    2
    18    10    34    2
    19    11    12    1
    20    11    13    1
    21    11    35    1
    22    12    14    1
    23    12    36    1
    24    13    15    1
    25    13    37    1
    26    14    16    1
    27    14    38    1
    28    15    39    1
    29    16    40    1
    30    16    41    1
    31    16    42    1
    32    17    18   ar
    33    17    21   ar
    34    18    19    1
    35    18    20   ar
    36    19    24   ar
    37    19    25   ar
    38    20    22   ar
    39    21    23   ar
    40    21    46    1
    41    22    23   ar
    42    22    27   ar
    43    23    47    1
    44    24    26   ar
    45    25    28   ar
    46    26    29   ar
    47    26    31   ar
    48    27    30   ar
    49    27    48    1
    50    28    29   ar
    51    28    49    1
    52    29    50    1
    53    30    32   ar
    54    30    51    1
    55    31    33   ar
    56    31    52    1
    57    33    34   ar
    58    33    53    1
