@<TRIPOS>MOLECULE
IMPHY007702
 39 42 0 0 0
SMALL
GASTEIGER

@<TRIPOS>ATOM
      1 N           5.9707   -1.9523    0.0000 N.3     1  UNL1       -0.2984
      2 N           4.5274    2.1345    0.0000 N.ar    1  UNL1       -0.3527
      3 N           7.0547    1.0102    0.0000 N.ar    1  UNL1       -0.2578
      4 C           5.3923   -1.1365    0.0000 C.3     1  UNL1        0.0374
      5 C           4.4378   -1.4345    0.0000 C.3     1  UNL1       -0.0320
      6 C           4.4262   -2.4345    0.0000 C.3     1  UNL1       -0.0385
      7 C           5.3736   -2.7545    0.0000 C.3     1  UNL1       -0.0008
      8 C           5.7123   -0.1891    0.0000 C.ar    1  UNL1       -0.0025
      9 C           5.0274    0.5956    0.0000 C.ar    1  UNL1        0.0153
     10 C           6.9707   -1.9639    0.0000 C.3     1  UNL1       -0.0122
     11 C           5.3364    1.5467    0.0000 C.ar    1  UNL1        0.0691
     12 C           4.0274    0.5956    0.0000 C.ar    1  UNL1        0.0078
     13 C           6.7328    0.0196    0.0000 C.ar    1  UNL1        0.0332
     14 C           3.7183    1.5467    0.0000 C.ar    1  UNL1        0.0475
     15 C           6.3518    1.7789    0.0000 C.ar    1  UNL1        0.0620
     16 C           3.3424   -0.1891    0.0000 C.ar    1  UNL1       -0.0520
     17 C           2.7029    1.7789    0.0000 C.ar    1  UNL1       -0.0378
     18 C           6.6498    2.7335    0.0000 C.3     1  UNL1       -0.0203
     19 C           2.3219    0.0196    0.0000 C.ar    1  UNL1       -0.0611
     20 C           2.0000    1.0102    0.0000 C.ar    1  UNL1       -0.0598
     21 H           4.7983   -0.5286    0.0000 H       1  UNL1        0.0513
     22 H           4.3159   -0.8266    0.0000 H       1  UNL1        0.0284
     23 H           3.8205   -1.4922    0.0000 H       1  UNL1        0.0284
     24 H           3.8104   -2.3625    0.0000 H       1  UNL1        0.0278
     25 H           4.2903   -3.0394    0.0000 H       1  UNL1        0.0278
     26 H           5.1149   -3.3179    0.0000 H       1  UNL1        0.0427
     27 H           5.9069   -3.0706    0.0000 H       1  UNL1        0.0427
     28 H           6.9635   -2.5838    0.0000 H       1  UNL1        0.0391
     29 H           7.5906   -1.9710    0.0000 H       1  UNL1        0.0391
     30 H           6.9778   -1.3439    0.0000 H       1  UNL1        0.0391
     31 H           7.1459   -0.4428    0.0000 H       1  UNL1        0.0833
     32 H           4.5274    2.7545    0.0000 H       1  UNL1        0.1660
     33 H           3.5408   -0.7765    0.0000 H       1  UNL1        0.0624
     34 H           2.5182    2.3708    0.0000 H       1  UNL1        0.0638
     35 H           7.2416    2.5487    0.0000 H       1  UNL1        0.0293
     36 H           6.8345    3.3253    0.0000 H       1  UNL1        0.0293
     37 H           6.0580    2.9182    0.0000 H       1  UNL1        0.0293
     38 H           1.9088   -0.4428    0.0000 H       1  UNL1        0.0618
     39 H           1.3940    1.1415    0.0000 H       1  UNL1        0.0618
@<TRIPOS>BOND
     1     1     4    1
     2     1     7    1
     3     1    10    1
     4     2    11   ar
     5     2    14   ar
     6     2    32    1
     7     3    13   ar
     8     3    15   ar
     9     4     5    1
    10     4     8    1
    11     4    21    1
    12     5     6    1
    13     5    22    1
    14     5    23    1
    15     6     7    1
    16     6    24    1
    17     6    25    1
    18     7    26    1
    19     7    27    1
    20     8     9   ar
    21     8    13   ar
    22     9    11   ar
    23     9    12   ar
    24    10    28    1
    25    10    29    1
    26    10    30    1
    27    11    15   ar
    28    12    14   ar
    29    12    16   ar
    30    13    31    1
    31    14    17   ar
    32    15    18    1
    33    16    19   ar
    34    16    33    1
    35    17    20   ar
    36    17    34    1
    37    18    35    1
    38    18    36    1
    39    18    37    1
    40    19    20   ar
    41    19    38    1
    42    20    39    1
