@<TRIPOS>MOLECULE
IMPHY008078
 26 27 0 0 0
SMALL
GASTEIGER

@<TRIPOS>ATOM
      1 O           2.0000   -1.0600    0.0000 O.3     1  UNL1       -0.4604
      2 O           2.0000    1.9400    0.0000 O.3     1  UNL1       -0.3943
      3 O           2.8660   -2.5600    0.0000 O.2     1  UNL1       -0.2449
      4 N           5.5321   -1.0808    0.0000 N.ar    1  UNL1       -0.2618
      5 C           2.8660    0.4400    0.0000 C.3     1  UNL1        0.0429
      6 C           3.7320   -0.0600    0.0000 C.ar    1  UNL1       -0.0149
      7 C           2.0000   -0.0600    0.0000 C.3     1  UNL1        0.1017
      8 C           2.8660    1.4400    0.0000 C.3     1  UNL1        0.0542
      9 C           3.7320   -1.0600    0.0000 C.ar    1  UNL1        0.0812
     10 C           4.6260    0.4747    0.0000 C.ar    1  UNL1       -0.0031
     11 C           2.8660   -1.5600    0.0000 C.2     1  UNL1        0.3410
     12 C           4.6260   -1.5947    0.0000 C.ar    1  UNL1        0.0418
     13 C           5.5321   -0.0392    0.0000 C.ar    1  UNL1        0.0350
     14 C           4.6144    1.4746    0.0000 C.2     1  UNL1       -0.0600
     15 C           5.4746    1.9846    0.0000 C.2     1  UNL1       -0.0981
     16 H           3.4030    0.7500    0.0000 H       1  UNL1        0.0405
     17 H           1.7880    0.5226    0.0000 H       1  UNL1        0.0704
     18 H           1.3894   -0.1677    0.0000 H       1  UNL1        0.0704
     19 H           3.4766    1.3323    0.0000 H       1  UNL1        0.0564
     20 H           3.0781    2.0226    0.0000 H       1  UNL1        0.0564
     21 H           4.6188   -2.2146    0.0000 H       1  UNL1        0.0838
     22 H           6.0678    0.2729    0.0000 H       1  UNL1        0.0835
     23 H           4.0740    1.7784    0.0000 H       1  UNL1        0.0618
     24 H           2.0000    2.5600    0.0000 H       1  UNL1        0.2094
     25 H           6.0151    1.6808    0.0000 H       1  UNL1        0.0535
     26 H           5.4675    2.6045    0.0000 H       1  UNL1        0.0535
@<TRIPOS>BOND
     1     1     7    1
     2     1    11    1
     3     2     8    1
     4     2    24    1
     5     3    11    2
     6     4    12   ar
     7     4    13   ar
     8     5     6    1
     9     5     7    1
    10     5     8    1
    11     5    16    1
    12     6     9   ar
    13     6    10   ar
    14     7    17    1
    15     7    18    1
    16     8    19    1
    17     8    20    1
    18     9    11    1
    19     9    12   ar
    20    10    13   ar
    21    10    14    1
    22    12    21    1
    23    13    22    1
    24    14    15    2
    25    14    23    1
    26    15    25    1
    27    15    26    1
