@<TRIPOS>MOLECULE
IMPHY006958
 12 11 0 0 0
SMALL
GASTEIGER

@<TRIPOS>ATOM
      1 S           4.5981   -0.2500    0.0000 S.3     1  UNL1       -0.1783
      2 C           2.8660   -0.2500    0.0000 C.3     1  UNL1       -0.0471
      3 C           3.7320    0.2500    0.0000 C.3     1  UNL1       -0.0096
      4 C           2.0000    0.2500    0.0000 C.3     1  UNL1       -0.0645
      5 H           2.4675   -0.7249    0.0000 H       1  UNL1        0.0270
      6 H           3.2646   -0.7249    0.0000 H       1  UNL1        0.0270
      7 H           4.1306    0.7249    0.0000 H       1  UNL1        0.0374
      8 H           3.3335    0.7249    0.0000 H       1  UNL1        0.0374
      9 H           2.3100    0.7869    0.0000 H       1  UNL1        0.0230
     10 H           1.4631    0.5600    0.0000 H       1  UNL1        0.0230
     11 H           1.6900   -0.2869    0.0000 H       1  UNL1        0.0230
     12 H           5.1350    0.0600    0.0000 H       1  UNL1        0.1016
@<TRIPOS>BOND
     1     1     3    1
     2     1    12    1
     3     2     3    1
     4     2     4    1
     5     2     5    1
     6     2     6    1
     7     3     7    1
     8     3     8    1
     9     4     9    1
    10     4    10    1
    11     4    11    1
