@<TRIPOS>MOLECULE
IMPHY005457
 58 63 0 0 0
SMALL
GASTEIGER

@<TRIPOS>ATOM
      1 O          10.4205    0.4653    0.0000 O.2     1  UNL1       -0.4537
      2 O           6.9006   -0.4653    0.0000 O.2     1  UNL1       -0.4537
      3 O           6.9285    0.5000    0.0000 O.3     1  UNL1       -0.5059
      4 O          10.3926   -0.5000    0.0000 O.3     1  UNL1       -0.5059
      5 O           8.6605    3.5000    0.0000 O.3     1  UNL1       -0.5058
      6 O           8.6605   -3.5000    0.0000 O.3     1  UNL1       -0.5058
      7 O          10.4089    3.5346    0.0000 O.2     1  UNL1       -0.2869
      8 O           6.9121   -3.5346    0.0000 O.2     1  UNL1       -0.2869
      9 O          14.7829   -1.0341    0.0000 O.3     1  UNL1       -0.5068
     10 O           2.5381    1.0341    0.0000 O.3     1  UNL1       -0.5068
     11 C           8.6605   -0.5000    0.0000 C.ar    1  UNL1        0.0737
     12 C           8.6605    0.5000    0.0000 C.ar    1  UNL1        0.0737
     13 C           9.5266    1.0000    0.0000 C.ar    1  UNL1        0.1542
     14 C           7.7945   -1.0000    0.0000 C.ar    1  UNL1        0.1542
     15 C           7.7945   -2.0000    0.0000 C.ar    1  UNL1        0.1061
     16 C           9.5266    2.0000    0.0000 C.ar    1  UNL1        0.1061
     17 C           9.5266   -1.0000    0.0000 C.ar    1  UNL1        0.1318
     18 C           7.7945    1.0000    0.0000 C.ar    1  UNL1        0.1318
     19 C           8.6605   -2.5000    0.0000 C.ar    1  UNL1        0.1347
     20 C           8.6605    2.5000    0.0000 C.ar    1  UNL1        0.1347
     21 C           7.7945    2.0000    0.0000 C.ar    1  UNL1        0.0229
     22 C           9.5266   -2.0000    0.0000 C.ar    1  UNL1        0.0229
     23 C          10.4205    2.5347    0.0000 C.ar    1  UNL1        0.1966
     24 C           6.9006   -2.5347    0.0000 C.ar    1  UNL1        0.1966
     25 C          11.3266    0.9792    0.0000 C.ar    1  UNL1        0.1393
     26 C           5.9945   -0.9792    0.0000 C.ar    1  UNL1        0.1393
     27 C          11.3266    2.0208    0.0000 C.ar    1  UNL1        0.0288
     28 C           5.9945   -2.0208    0.0000 C.ar    1  UNL1        0.0288
     29 C          12.1907    0.4758    0.0000 C.ar    1  UNL1        0.0176
     30 C           5.1304   -0.4758    0.0000 C.ar    1  UNL1        0.0176
     31 C          12.1868   -0.5241    0.0000 C.ar    1  UNL1       -0.0476
     32 C           5.1343    0.5241    0.0000 C.ar    1  UNL1       -0.0476
     33 C          13.0586    0.9725    0.0000 C.ar    1  UNL1       -0.0476
     34 C           4.2625   -0.9725    0.0000 C.ar    1  UNL1       -0.0476
     35 C           4.2702    1.0275    0.0000 C.ar    1  UNL1       -0.0195
     36 C          13.0509   -1.0275    0.0000 C.ar    1  UNL1       -0.0195
     37 C           3.3984   -0.4692    0.0000 C.ar    1  UNL1       -0.0195
     38 C          13.9227    0.4692    0.0000 C.ar    1  UNL1       -0.0195
     39 C           3.4022    0.5308    0.0000 C.ar    1  UNL1        0.1169
     40 C          13.9188   -0.5308    0.0000 C.ar    1  UNL1        0.1169
     41 H          10.0635   -2.3100    0.0000 H       1  UNL1        0.0691
     42 H           7.2576    2.3100    0.0000 H       1  UNL1        0.0691
     43 H           5.4588   -2.3329    0.0000 H       1  UNL1        0.0693
     44 H          11.8623    2.3329    0.0000 H       1  UNL1        0.0693
     45 H           6.3915    0.8100    0.0000 H       1  UNL1        0.2922
     46 H          10.9295   -0.8100    0.0000 H       1  UNL1        0.2922
     47 H          11.6487   -0.8321    0.0000 H       1  UNL1        0.0626
     48 H           5.6724    0.8321    0.0000 H       1  UNL1        0.0626
     49 H          13.0610    1.5925    0.0000 H       1  UNL1        0.0626
     50 H           4.2601   -1.5925    0.0000 H       1  UNL1        0.0626
     51 H           9.1975   -3.8100    0.0000 H       1  UNL1        0.2922
     52 H           8.1236    3.8100    0.0000 H       1  UNL1        0.2922
     53 H           4.2726    1.6475    0.0000 H       1  UNL1        0.0654
     54 H          13.0485   -1.6475    0.0000 H       1  UNL1        0.0654
     55 H           2.8602   -0.7771    0.0000 H       1  UNL1        0.0654
     56 H          14.4608    0.7771    0.0000 H       1  UNL1        0.0654
     57 H           2.0000    0.7262    0.0000 H       1  UNL1        0.2921
     58 H          15.3211   -0.7262    0.0000 H       1  UNL1        0.2921
@<TRIPOS>BOND
     1     1    13   ar
     2     1    25   ar
     3     2    14   ar
     4     2    26   ar
     5     3    18    1
     6     3    45    1
     7     4    17    1
     8     4    46    1
     9     5    20    1
    10     5    52    1
    11     6    19    1
    12     6    51    1
    13     7    23    2
    14     8    24    2
    15     9    40    1
    16     9    58    1
    17    10    39    1
    18    10    57    1
    19    11    12    1
    20    11    14   ar
    21    11    17   ar
    22    12    13   ar
    23    12    18   ar
    24    13    16   ar
    25    14    15   ar
    26    15    19   ar
    27    15    24   ar
    28    16    20   ar
    29    16    23   ar
    30    17    22   ar
    31    18    21   ar
    32    19    22   ar
    33    20    21   ar
    34    21    42    1
    35    22    41    1
    36    23    27   ar
    37    24    28   ar
    38    25    27   ar
    39    25    29    1
    40    26    28   ar
    41    26    30    1
    42    27    44    1
    43    28    43    1
    44    29    31   ar
    45    29    33   ar
    46    30    32   ar
    47    30    34   ar
    48    31    36   ar
    49    31    47    1
    50    32    35   ar
    51    32    48    1
    52    33    38   ar
    53    33    49    1
    54    34    37   ar
    55    34    50    1
    56    35    39   ar
    57    35    53    1
    58    36    40   ar
    59    36    54    1
    60    37    39   ar
    61    37    55    1
    62    38    40   ar
    63    38    56    1
