@<TRIPOS>MOLECULE
IMPHY017102
 15 15 0 0 0
SMALL
GASTEIGER

@<TRIPOS>ATOM
      1 S           2.0000   -1.6739    0.0000 S.2     1  UNL1       -0.0567
      2 C           3.8968    0.0861    0.0000 C.3     1  UNL1       -0.0272
      3 C           3.5878   -0.8649    0.0000 C.3     1  UNL1       -0.0172
      4 C           3.0878    0.6739    0.0000 C.2     1  UNL1       -0.0715
      5 C           2.5878   -0.8649    0.0000 C.2     1  UNL1       -0.0032
      6 C           2.2788    0.0861    0.0000 C.2     1  UNL1       -0.0525
      7 C           3.0878    1.6739    0.0000 C.3     1  UNL1       -0.0435
      8 H           4.4632   -0.1660    0.0000 H       1  UNL1        0.0313
      9 H           4.2068    0.6231    0.0000 H       1  UNL1        0.0313
     10 H           3.5230   -1.4815    0.0000 H       1  UNL1        0.0321
     11 H           4.1942   -0.9938    0.0000 H       1  UNL1        0.0321
     12 H           1.6891    0.2777    0.0000 H       1  UNL1        0.0625
     13 H           3.7078    1.6739    0.0000 H       1  UNL1        0.0274
     14 H           3.0878    2.2939    0.0000 H       1  UNL1        0.0274
     15 H           2.4678    1.6739    0.0000 H       1  UNL1        0.0274
@<TRIPOS>BOND
     1     1     5    2
     2     2     3    1
     3     2     4    1
     4     2     8    1
     5     2     9    1
     6     3     5    1
     7     3    10    1
     8     3    11    1
     9     4     6    2
    10     4     7    1
    11     5     6    1
    12     6    12    1
    13     7    13    1
    14     7    14    1
    15     7    15    1
