@<TRIPOS>MOLECULE
IMPHY010628
 19 21 0 0 0
SMALL
GASTEIGER

@<TRIPOS>ATOM
      1 O           2.9789   -1.4458    0.0000 O.3     1  UNL1       -0.4714
      2 O           9.3554    0.5022    0.0000 O.3     1  UNL1       -0.2864
      3 O           9.7014   -1.2417    0.0000 O.2     1  UNL1       -0.2830
      4 N           5.8507    1.4148    0.0000 N.ar    1  UNL1       -0.3530
      5 C           6.3507   -0.1241    0.0000 C.ar    1  UNL1        0.0174
      6 C           5.3507   -0.1241    0.0000 C.ar    1  UNL1        0.0200
      7 C           6.6597    0.8270    0.0000 C.ar    1  UNL1        0.0598
      8 C           5.0417    0.8270    0.0000 C.ar    1  UNL1        0.0568
      9 C           7.0357   -0.9088    0.0000 C.ar    1  UNL1        0.0080
     10 C           4.6657   -0.9088    0.0000 C.ar    1  UNL1        0.0384
     11 C           7.6751    1.0592    0.0000 C.ar    1  UNL1        0.0591
     12 C           4.0263    1.0592    0.0000 C.ar    1  UNL1        0.0201
     13 C           8.0562   -0.7001    0.0000 C.ar    1  UNL1        0.0812
     14 C           8.3780    0.2905    0.0000 C.ar    1  UNL1        0.2003
     15 C           3.6452   -0.7001    0.0000 C.ar    1  UNL1        0.1388
     16 C           3.3233    0.2905    0.0000 C.ar    1  UNL1        0.0384
     17 C           8.7224   -1.4458    0.0000 C.2     1  UNL1        0.2373
     18 C           2.0000   -1.2417    0.0000 C.3     1  UNL1        0.2525
     19 H           5.8507    2.0348    0.0000 H       1  UNL1        0.1659
@<TRIPOS>BOND
     1     1    15    1
     2     1    18    1
     3     2    14    1
     4     3    17    2
     5     4     7   ar
     6     4     8   ar
     7     4    19    1
     8     5     6   ar
     9     5     7   ar
    10     5     9   ar
    11     6     8   ar
    12     6    10   ar
    13     7    11   ar
    14     8    12   ar
    15     9    13   ar
    16    10    15   ar
    17    11    14   ar
    18    12    16   ar
    19    13    14   ar
    20    13    17    1
    21    15    16   ar
