@<TRIPOS>MOLECULE
IMPHY011199
 81 85 0 0 0
SMALL
GASTEIGER

@<TRIPOS>ATOM
      1 O          11.2079   -1.8518    0.0000 O.3     1  UNL1       -0.3313
      2 O           5.1350   -1.3362    0.0000 O.3     1  UNL1       -0.3313
      3 O          10.3592   -0.3419    0.0000 O.3     1  UNL1       -0.4515
      4 O           6.8671   -1.3362    0.0000 O.3     1  UNL1       -0.4598
      5 O           8.5926   -3.3216    0.0000 O.3     1  UNL1       -0.3864
      6 O          10.3130   -4.3416    0.0000 O.3     1  UNL1       -0.3865
      7 O           5.1350   -4.3362    0.0000 O.3     1  UNL1       -0.3864
      8 O           3.4030   -3.3362    0.0000 O.3     1  UNL1       -0.3865
      9 O           8.6158   -1.3218    0.0000 O.3     1  UNL1       -0.3829
     10 O           6.8671   -3.3362    0.0000 O.3     1  UNL1       -0.3829
     11 O          12.9282   -2.8718    0.0000 O.3     1  UNL1       -0.3924
     12 O           2.5369   -1.8362    0.0000 O.3     1  UNL1       -0.3924
     13 O           8.6504    1.6780    0.0000 O.2     1  UNL1       -0.1997
     14 O           5.1208    1.7430    0.0000 O.3     1  UNL1       -0.5063
     15 O          11.2773    4.1478    0.0000 O.3     1  UNL1       -0.4913
     16 O          12.9745    1.1280    0.0000 O.3     1  UNL1       -0.4913
     17 O          12.9976    3.1278    0.0000 O.3     1  UNL1       -0.5009
     18 C           9.4644   -2.8317    0.0000 C.3     1  UNL1        0.1152
     19 C          10.3246   -3.3417    0.0000 C.3     1  UNL1        0.1120
     20 C           5.1350   -3.3362    0.0000 C.3     1  UNL1        0.1152
     21 C           4.2690   -2.8362    0.0000 C.3     1  UNL1        0.1120
     22 C           9.4759   -1.8318    0.0000 C.3     1  UNL1        0.1454
     23 C           6.0010   -2.8362    0.0000 C.3     1  UNL1        0.1454
     24 C          11.1963   -2.8517    0.0000 C.3     1  UNL1        0.1140
     25 C           4.2690   -1.8362    0.0000 C.3     1  UNL1        0.1140
     26 C          10.3477   -1.3418    0.0000 C.3     1  UNL1        0.2312
     27 C           6.0010   -1.8362    0.0000 C.3     1  UNL1        0.2308
     28 C          12.0565   -3.3617    0.0000 C.3     1  UNL1        0.0731
     29 C           3.4030   -1.3362    0.0000 C.3     1  UNL1        0.0731
     30 C           9.4991    0.1681    0.0000 C.ar    1  UNL1        0.2288
     31 C           6.8671   -0.3362    0.0000 C.ar    1  UNL1        0.1437
     32 C           7.7671    0.1881    0.0000 C.ar    1  UNL1        0.1245
     33 C           8.6273   -0.3218    0.0000 C.ar    1  UNL1        0.0093
     34 C           9.5106    1.1680    0.0000 C.ar    1  UNL1        0.4047
     35 C           7.7787    1.1881    0.0000 C.ar    1  UNL1        0.3708
     36 C           5.9670    0.1881    0.0000 C.ar    1  UNL1        0.0229
     37 C           6.8910    1.7330    0.0000 C.ar    1  UNL1        0.0847
     38 C           5.9790    1.2297    0.0000 C.ar    1  UNL1        0.1293
     39 C          10.3824    1.6580    0.0000 C.ar    1  UNL1        0.0899
     40 C          11.2426    1.1480    0.0000 C.ar    1  UNL1        0.0002
     41 C          10.3939    2.6579    0.0000 C.ar    1  UNL1        0.0002
     42 C          11.2657    3.1479    0.0000 C.ar    1  UNL1        0.1658
     43 C          12.1143    1.6380    0.0000 C.ar    1  UNL1        0.1658
     44 C          12.1259    2.6379    0.0000 C.ar    1  UNL1        0.2011
     45 C          10.4171    4.6578    0.0000 C.3     1  UNL1        0.0790
     46 C          13.8462    1.6179    0.0000 C.3     1  UNL1        0.0790
     47 H          10.1209   -2.4627    0.0000 H       1  UNL1        0.0648
     48 H          10.9724   -3.7258    0.0000 H       1  UNL1        0.0647
     49 H           5.7872   -3.7128    0.0000 H       1  UNL1        0.0648
     50 H           3.6168   -2.4596    0.0000 H       1  UNL1        0.0647
     51 H           8.8194   -2.2008    0.0000 H       1  UNL1        0.0683
     52 H           6.0011   -3.5893    0.0000 H       1  UNL1        0.0683
     53 H          10.5485   -2.4676    0.0000 H       1  UNL1        0.0647
     54 H           3.6168   -2.2128    0.0000 H       1  UNL1        0.0647
     55 H          11.0042   -0.9728    0.0000 H       1  UNL1        0.1084
     56 H           6.0011   -1.0831    0.0000 H       1  UNL1        0.1084
     57 H          12.4255   -4.0182    0.0000 H       1  UNL1        0.0584
     58 H          11.6725   -4.0095    0.0000 H       1  UNL1        0.0584
     59 H           3.0265   -0.6839    0.0000 H       1  UNL1        0.0584
     60 H           3.7796   -0.6840    0.0000 H       1  UNL1        0.0584
     61 H           7.9360   -3.6905    0.0000 H       1  UNL1        0.2100
     62 H          10.3043   -5.0947    0.0000 H       1  UNL1        0.2100
     63 H           5.1350   -5.0893    0.0000 H       1  UNL1        0.2100
     64 H           2.7508   -3.7128    0.0000 H       1  UNL1        0.2100
     65 H           7.9680   -0.9377    0.0000 H       1  UNL1        0.2102
     66 H           7.5193   -3.7127    0.0000 H       1  UNL1        0.2102
     67 H           8.6186   -1.0749    0.0000 H       1  UNL1        0.0667
     68 H          13.5847   -2.5028    0.0000 H       1  UNL1        0.2095
     69 H           1.8847   -2.2127    0.0000 H       1  UNL1        0.2095
     70 H           5.3119   -0.1834    0.0000 H       1  UNL1        0.0691
     71 H           6.9085    2.4859    0.0000 H       1  UNL1        0.0749
     72 H          11.2339    0.3949    0.0000 H       1  UNL1        0.0664
     73 H           9.7460    3.0419    0.0000 H       1  UNL1        0.0664
     74 H           4.4745    2.1296    0.0000 H       1  UNL1        0.2921
     75 H          13.6541    3.4968    0.0000 H       1  UNL1        0.2924
     76 H          10.4258    5.4109    0.0000 H       1  UNL1        0.0660
     77 H           9.7693    5.0419    0.0000 H       1  UNL1        0.0660
     78 H           9.7606    4.2888    0.0000 H       1  UNL1        0.0660
     79 H          14.4940    1.2338    0.0000 H       1  UNL1        0.0660
     80 H          14.5027    1.9869    0.0000 H       1  UNL1        0.0660
     81 H          13.8549    2.3710    0.0000 H       1  UNL1        0.0660
@<TRIPOS>UNITY_ATOM_ATTR
13 1
charge 1
@<TRIPOS>BOND
     1     1    24    1
     2     1    26    1
     3     2    25    1
     4     2    27    1
     5     3    26    1
     6     3    30    1
     7     4    27    1
     8     4    31    1
     9     5    18    1
    10     5    61    1
    11     6    19    1
    12     6    62    1
    13     7    20    1
    14     7    63    1
    15     8    21    1
    16     8    64    1
    17     9    22    1
    18     9    65    1
    19    10    23    1
    20    10    66    1
    21    11    28    1
    22    11    68    1
    23    12    29    1
    24    12    69    1
    25    13    34   ar
    26    13    35   ar
    27    14    38    1
    28    14    74    1
    29    15    42    1
    30    15    45    1
    31    16    43    1
    32    16    46    1
    33    17    44    1
    34    17    75    1
    35    18    19    1
    36    18    22    1
    37    18    47    1
    38    19    24    1
    39    19    48    1
    40    20    21    1
    41    20    23    1
    42    20    49    1
    43    21    25    1
    44    21    50    1
    45    22    26    1
    46    22    51    1
    47    23    27    1
    48    23    52    1
    49    24    28    1
    50    24    53    1
    51    25    29    1
    52    25    54    1
    53    26    55    1
    54    27    56    1
    55    28    57    1
    56    28    58    1
    57    29    59    1
    58    29    60    1
    59    30    33   ar
    60    30    34   ar
    61    31    32   ar
    62    31    36   ar
    63    32    33   ar
    64    32    35   ar
    65    33    67    1
    66    34    39    1
    67    35    37   ar
    68    36    38   ar
    69    36    70    1
    70    37    38   ar
    71    37    71    1
    72    39    40   ar
    73    39    41   ar
    74    40    43   ar
    75    40    72    1
    76    41    42   ar
    77    41    73    1
    78    42    44   ar
    79    43    44   ar
    80    45    76    1
    81    45    77    1
    82    45    78    1
    83    46    79    1
    84    46    80    1
    85    46    81    1
