@<TRIPOS>MOLECULE
IMPHY007935
 49 53 0 0 0
SMALL
GASTEIGER

@<TRIPOS>ATOM
      1 O           5.4310   -3.4852    0.0000 O.3     1  UNL1       -0.4523
      2 O           3.9857   -4.3346    0.0000 O.3     1  UNL1       -0.4526
      3 O           2.9562    3.4885    0.0000 O.3     1  UNL1       -0.4489
      4 O           4.4081    4.3267    0.0000 O.3     1  UNL1       -0.4525
      5 O           2.8718    1.2420    0.0000 O.3     1  UNL1       -0.4906
      6 O           4.6419   -0.7548    0.0000 O.2     1  UNL1       -0.2916
      7 N           5.5080   -0.2548    0.0000 N.3     1  UNL1       -0.3007
      8 C           6.3740    0.2452    0.0000 C.3     1  UNL1        0.0029
      9 C           5.5080   -1.2548    0.0000 C.3     1  UNL1        0.0276
     10 C           6.3740    1.2452    0.0000 C.3     1  UNL1       -0.0140
     11 C           4.6419   -1.7548    0.0000 C.ar    1  UNL1        0.0156
     12 C           5.5080    1.7452    0.0000 C.ar    1  UNL1       -0.0285
     13 C           3.7759   -1.2548    0.0000 C.ar    1  UNL1       -0.0318
     14 C           4.6419    1.2452    0.0000 C.ar    1  UNL1        0.0664
     15 C           3.7759   -0.2548    0.0000 C.3     1  UNL1        0.0362
     16 C           4.6580   -2.7963    0.0000 C.ar    1  UNL1        0.1709
     17 C           4.6419    0.2452    0.0000 C.2     1  UNL1        0.1713
     18 C           3.7319    1.7520    0.0000 C.ar    1  UNL1        0.1760
     19 C           5.5240    2.7867    0.0000 C.ar    1  UNL1       -0.0120
     20 C           3.7600   -3.3241    0.0000 C.ar    1  UNL1        0.1666
     21 C           2.8659   -1.7617    0.0000 C.ar    1  UNL1       -0.0542
     22 C           3.7239    2.7936    0.0000 C.ar    1  UNL1        0.2082
     23 C           4.6260    3.3144    0.0000 C.ar    1  UNL1        0.1702
     24 C           5.5080    0.7452    0.0000 C.3     1  UNL1       -0.0124
     25 C           2.8579   -2.8033    0.0000 C.ar    1  UNL1       -0.0159
     26 C           5.0164   -4.4340    0.0000 C.3     1  UNL1        0.2332
     27 C           3.3782    4.4340    0.0000 C.3     1  UNL1        0.2334
     28 C           2.0000    1.7320    0.0000 C.3     1  UNL1        0.0790
     29 H           6.5860   -0.3374    0.0000 H       1  UNL1        0.0430
     30 H           6.9846    0.3528    0.0000 H       1  UNL1        0.0430
     31 H           5.7200   -1.8374    0.0000 H       1  UNL1        0.0477
     32 H           6.1185   -1.1472    0.0000 H       1  UNL1        0.0477
     33 H           6.9846    1.1375    0.0000 H       1  UNL1        0.0326
     34 H           6.5860    1.8278    0.0000 H       1  UNL1        0.0326
     35 H           3.5639    0.3278    0.0000 H       1  UNL1        0.0394
     36 H           3.1653   -0.3625    0.0000 H       1  UNL1        0.0394
     37 H           6.0645    3.0904    0.0000 H       1  UNL1        0.0658
     38 H           2.3326   -1.4455    0.0000 H       1  UNL1        0.0622
     39 H           6.1280    0.7452    0.0000 H       1  UNL1        0.0391
     40 H           5.5080    1.3652    0.0000 H       1  UNL1        0.0391
     41 H           4.8880    0.7452    0.0000 H       1  UNL1        0.0391
     42 H           2.3198   -3.1112    0.0000 H       1  UNL1        0.0655
     43 H           4.8923   -5.0415    0.0000 H       1  UNL1        0.1166
     44 H           5.6074   -4.6213    0.0000 H       1  UNL1        0.1166
     45 H           3.5069    5.0405    0.0000 H       1  UNL1        0.1166
     46 H           2.7886    4.6258    0.0000 H       1  UNL1        0.1166
     47 H           2.3038    2.2725    0.0000 H       1  UNL1        0.0660
     48 H           1.4595    2.0358    0.0000 H       1  UNL1        0.0660
     49 H           1.6962    1.1915    0.0000 H       1  UNL1        0.0660
@<TRIPOS>BOND
     1     1    16    1
     2     1    26    1
     3     2    20    1
     4     2    26    1
     5     3    22    1
     6     3    27    1
     7     4    23    1
     8     4    27    1
     9     5    18    1
    10     5    28    1
    11     6    17    2
    12     7     8    1
    13     7     9    1
    14     7    24    1
    15     8    10    1
    16     8    29    1
    17     8    30    1
    18     9    11    1
    19     9    31    1
    20     9    32    1
    21    10    12    1
    22    10    33    1
    23    10    34    1
    24    11    13   ar
    25    11    16   ar
    26    12    14   ar
    27    12    19   ar
    28    13    15    1
    29    13    21   ar
    30    14    17    1
    31    14    18   ar
    32    15    17    1
    33    15    35    1
    34    15    36    1
    35    16    20   ar
    36    18    22   ar
    37    19    23   ar
    38    19    37    1
    39    20    25   ar
    40    21    25   ar
    41    21    38    1
    42    22    23   ar
    43    24    39    1
    44    24    40    1
    45    24    41    1
    46    25    42    1
    47    26    43    1
    48    26    44    1
    49    27    45    1
    50    27    46    1
    51    28    47    1
    52    28    48    1
    53    28    49    1
