@<TRIPOS>MOLECULE
IMPHY003001
 78 83 0 0 0
SMALL
GASTEIGER

@<TRIPOS>ATOM
      1 O          11.3900    1.9789    0.0000 O.3     1  UNL1       -0.3874
      2 O           8.7382    3.5375    0.0000 O.3     1  UNL1       -0.3835
      3 O           6.0010    3.0520    0.0000 O.3     1  UNL1       -0.3479
      4 O           7.4236    0.3775    0.0000 O.2     1  UNL1       -0.3003
      5 O          13.5826   -2.5922    0.0000 O.3     1  UNL1       -0.4571
      6 O           4.2690    3.0520    0.0000 O.3     1  UNL1       -0.3456
      7 O          12.3199   -3.8496    0.0000 O.2     1  UNL1       -0.2456
      8 O           4.2690    0.0520    0.0000 O.3     1  UNL1       -0.3890
      9 O           2.5369    1.0520    0.0000 O.3     1  UNL1       -0.3867
     10 C          11.3823   -0.0211    0.0000 C.3     1  UNL1        0.0039
     11 C          11.3862    0.9789    0.0000 C.3     1  UNL1        0.0785
     12 C           9.6541    0.9856    0.0000 C.3     1  UNL1       -0.0171
     13 C          10.5221    1.4822    0.0000 C.3     1  UNL1        0.0104
     14 C           8.7461    1.4959    0.0000 C.3     1  UNL1        0.0617
     15 C          12.3274   -0.3295    0.0000 C.3     1  UNL1       -0.0081
     16 C          10.5144   -0.5178    0.0000 C.3     1  UNL1       -0.0441
     17 C           9.6503   -0.0144    0.0000 C.3     1  UNL1       -0.0480
     18 C          12.3336    1.2800    0.0000 C.3     1  UNL1       -0.0223
     19 C           8.7421    2.5376    0.0000 C.3     1  UNL1        0.0987
     20 C          12.9141    0.4730    0.0000 C.3     1  UNL1       -0.0432
     21 C           7.8171    0.9354    0.0000 C.3     1  UNL1       -0.0353
     22 C          10.5422    2.5237    0.0000 C.2     1  UNL1       -0.0791
     23 C          11.3785   -1.0211    0.0000 C.3     1  UNL1       -0.0564
     24 C           7.8088    3.0909    0.0000 C.3     1  UNL1        0.0070
     25 C           9.6462    3.0549    0.0000 C.2     1  UNL1       -0.0554
     26 C          12.6344   -1.2812    0.0000 C.2     1  UNL1       -0.0222
     27 C           6.8712    1.4670    0.0000 C.3     1  UNL1       -0.0254
     28 C           6.8671    2.5520    0.0000 C.3     1  UNL1        0.0646
     29 C           8.4077    0.5549    0.0000 C.2     1  UNL1        0.1297
     30 C          13.5847   -1.5922    0.0000 C.3     1  UNL1        0.1147
     31 C          12.0448   -2.0890    0.0000 C.2     1  UNL1        0.0252
     32 C          12.6309   -2.8992    0.0000 C.2     1  UNL1        0.3323
     33 C           5.1350    2.5520    0.0000 C.3     1  UNL1        0.1624
     34 C           5.1350    1.5520    0.0000 C.3     1  UNL1        0.0270
     35 C           4.2690    1.0520    0.0000 C.3     1  UNL1        0.0881
     36 C           3.4030    2.5520    0.0000 C.3     1  UNL1        0.0871
     37 C           3.4030    1.5520    0.0000 C.3     1  UNL1        0.1070
     38 C           2.5369    3.0520    0.0000 C.3     1  UNL1       -0.0361
     39 H           8.9197    0.5577    0.0000 H       1  UNL1        0.0318
     40 H          11.2631    1.8987    0.0000 H       1  UNL1        0.0374
     41 H          12.9395   -0.4280    0.0000 H       1  UNL1        0.0353
     42 H          10.1140   -0.9912    0.0000 H       1  UNL1        0.0272
     43 H          10.9111   -0.9942    0.0000 H       1  UNL1        0.0272
     44 H           9.0401    0.0956    0.0000 H       1  UNL1        0.0269
     45 H           9.4360   -0.5962    0.0000 H       1  UNL1        0.0269
     46 H          12.8721    1.5871    0.0000 H       1  UNL1        0.0293
     47 H          12.0847    1.8478    0.0000 H       1  UNL1        0.0293
     48 H          13.3733    0.0565    0.0000 H       1  UNL1        0.0272
     49 H          13.3765    0.8860    0.0000 H       1  UNL1        0.0272
     50 H           7.4253    0.4549    0.0000 H       1  UNL1        0.0276
     51 H           8.2235    0.4672    0.0000 H       1  UNL1        0.0276
     52 H          11.0838    2.8254    0.0000 H       1  UNL1        0.0574
     53 H          10.7585   -1.0187    0.0000 H       1  UNL1        0.0236
     54 H          11.3761   -1.6411    0.0000 H       1  UNL1        0.0236
     55 H          11.9985   -1.0235    0.0000 H       1  UNL1        0.0236
     56 H           8.2116    3.5622    0.0000 H       1  UNL1        0.0321
     57 H           7.4133    3.5684    0.0000 H       1  UNL1        0.0321
     58 H           9.6509    3.6749    0.0000 H       1  UNL1        0.0598
     59 H           6.2600    1.5708    0.0000 H       1  UNL1        0.0290
     60 H           6.6644    0.8825    0.0000 H       1  UNL1        0.0290
     61 H          11.9282    2.2868    0.0000 H       1  UNL1        0.2102
     62 H           6.8683    3.1720    0.0000 H       1  UNL1        0.0598
     63 H           8.8080    0.0815    0.0000 H       1  UNL1        0.1033
     64 H           9.2740    3.8496    0.0000 H       1  UNL1        0.2106
     65 H          14.2012   -1.6583    0.0000 H       1  UNL1        0.0746
     66 H          13.7149   -0.9860    0.0000 H       1  UNL1        0.0746
     67 H          11.4248   -2.0876    0.0000 H       1  UNL1        0.0689
     68 H           5.1350    3.1720    0.0000 H       1  UNL1        0.0910
     69 H           5.3471    0.9694    0.0000 H       1  UNL1        0.0340
     70 H           5.7456    1.6597    0.0000 H       1  UNL1        0.0340
     71 H           4.8059    0.7420    0.0000 H       1  UNL1        0.0621
     72 H           3.4030    3.1720    0.0000 H       1  UNL1        0.0621
     73 H           3.4030    0.9320    0.0000 H       1  UNL1        0.0645
     74 H           2.8469    3.5889    0.0000 H       1  UNL1        0.0255
     75 H           2.0000    3.3620    0.0000 H       1  UNL1        0.0255
     76 H           2.2269    2.5151    0.0000 H       1  UNL1        0.0255
     77 H           3.7320   -0.2580    0.0000 H       1  UNL1        0.2099
     78 H           2.0000    1.3620    0.0000 H       1  UNL1        0.2100
@<TRIPOS>BOND
     1    11     1    1
     2     1    61    1
     3    19     2    1
     4     2    64    1
     5    28     3    1
     6     3    33    1
     7     4    29    2
     8     5    30    1
     9     5    32    1
    10     6    33    1
    11     6    36    1
    12     7    32    2
    13     8    35    1
    14     8    77    1
    15     9    37    1
    16     9    78    1
    17    10    11    1
    18    10    15    1
    19    10    16    1
    20    10    23    1
    21    11    13    1
    22    11    18    1
    23    12    13    1
    24    12    14    1
    25    12    17    1
    26    12    39    1
    27    13    22    1
    28    13    40    1
    29    14    19    1
    30    14    21    1
    31    14    29    1
    32    15    20    1
    33    15    26    1
    34    15    41    1
    35    16    17    1
    36    16    42    1
    37    16    43    1
    38    17    44    1
    39    17    45    1
    40    18    20    1
    41    18    46    1
    42    18    47    1
    43    19    24    1
    44    19    25    1
    45    20    48    1
    46    20    49    1
    47    21    27    1
    48    21    50    1
    49    21    51    1
    50    22    25    2
    51    22    52    1
    52    23    53    1
    53    23    54    1
    54    23    55    1
    55    24    28    1
    56    24    56    1
    57    24    57    1
    58    25    58    1
    59    26    30    1
    60    26    31    2
    61    27    28    1
    62    27    59    1
    63    27    60    1
    64    28    62    1
    65    29    63    1
    66    30    65    1
    67    30    66    1
    68    31    32    1
    69    31    67    1
    70    33    34    1
    71    33    68    1
    72    34    35    1
    73    34    69    1
    74    34    70    1
    75    35    37    1
    76    35    71    1
    77    36    37    1
    78    36    38    1
    79    36    72    1
    80    37    73    1
    81    38    74    1
    82    38    75    1
    83    38    76    1
