@<TRIPOS>MOLECULE
IMPHY007679
 48 53 0 0 0
SMALL
GASTEIGER

@<TRIPOS>ATOM
      1 O           6.6498    1.6174    0.0000 O.2     1  UNL1       -0.2850
      2 O           8.4370   -1.6174    0.0000 O.2     1  UNL1       -0.2850
      3 O           5.3923   -2.2526    0.0000 O.2     1  UNL1       -0.2869
      4 O           9.6944    2.2526    0.0000 O.2     1  UNL1       -0.2869
      5 N           4.5274    1.0184    0.0000 N.ar    1  UNL1       -0.3510
      6 N          10.5594   -1.0184    0.0000 N.ar    1  UNL1       -0.3510
      7 C           7.0547   -0.1058    0.0000 C.2     1  UNL1        0.0415
      8 C           8.0321    0.1058    0.0000 C.2     1  UNL1        0.0415
      9 C           5.0274   -0.5205    0.0000 C.ar    1  UNL1        0.0581
     10 C          10.0594    0.5205    0.0000 C.ar    1  UNL1        0.0581
     11 C           9.7504   -0.4306    0.0000 C.ar    1  UNL1        0.0991
     12 C           5.3364    0.4306    0.0000 C.ar    1  UNL1        0.0991
     13 C           6.7328   -1.0965    0.0000 C.2     1  UNL1        0.0084
     14 C           8.3539    1.0965    0.0000 C.2     1  UNL1        0.0084
     15 C           6.3518    0.6628    0.0000 C.2     1  UNL1        0.2109
     16 C           8.7350   -0.6628    0.0000 C.2     1  UNL1        0.2109
     17 C           4.0274   -0.5205    0.0000 C.ar    1  UNL1        0.0112
     18 C          11.0594    0.5205    0.0000 C.ar    1  UNL1        0.0112
     19 C           5.7123   -1.3052    0.0000 C.2     1  UNL1        0.1923
     20 C           9.3744    1.3052    0.0000 C.2     1  UNL1        0.1923
     21 C           3.7183    0.4306    0.0000 C.ar    1  UNL1        0.0477
     22 C          11.3684   -0.4306    0.0000 C.ar    1  UNL1        0.0477
     23 C           7.6877    1.8422    0.0000 C.3     1  UNL1       -0.0354
     24 C           7.3991   -1.8422    0.0000 C.3     1  UNL1       -0.0354
     25 C           3.3424   -1.3052    0.0000 C.ar    1  UNL1       -0.0519
     26 C          11.7444    1.3052    0.0000 C.ar    1  UNL1       -0.0519
     27 C           2.7029    0.6628    0.0000 C.ar    1  UNL1       -0.0378
     28 C          12.3838   -0.6628    0.0000 C.ar    1  UNL1       -0.0378
     29 C          12.7649    1.0965    0.0000 C.ar    1  UNL1       -0.0611
     30 C           2.3219   -1.0965    0.0000 C.ar    1  UNL1       -0.0611
     31 C           2.0000   -0.1058    0.0000 C.ar    1  UNL1       -0.0598
     32 C          13.0868    0.1058    0.0000 C.ar    1  UNL1       -0.0598
     33 H           4.5274    1.6384    0.0000 H       1  UNL1        0.1660
     34 H          10.5594   -1.6384    0.0000 H       1  UNL1        0.1660
     35 H           8.1500    2.2553    0.0000 H       1  UNL1        0.0279
     36 H           6.9368   -2.2553    0.0000 H       1  UNL1        0.0279
     37 H           7.8122   -2.3046    0.0000 H       1  UNL1        0.0279
     38 H           7.8614   -1.4291    0.0000 H       1  UNL1        0.0279
     39 H           7.2746    2.3046    0.0000 H       1  UNL1        0.0279
     40 H           7.2253    1.4291    0.0000 H       1  UNL1        0.0279
     41 H          11.5460    1.8926    0.0000 H       1  UNL1        0.0624
     42 H           3.5408   -1.8926    0.0000 H       1  UNL1        0.0624
     43 H          12.5686   -1.2547    0.0000 H       1  UNL1        0.0638
     44 H           2.5182    1.2547    0.0000 H       1  UNL1        0.0638
     45 H          13.1780    1.5588    0.0000 H       1  UNL1        0.0618
     46 H           1.9088   -1.5588    0.0000 H       1  UNL1        0.0618
     47 H          13.6927   -0.0254    0.0000 H       1  UNL1        0.0618
     48 H           1.3940    0.0254    0.0000 H       1  UNL1        0.0618
@<TRIPOS>BOND
     1     1    15    2
     2     2    16    2
     3     3    19    2
     4     4    20    2
     5     5    12   ar
     6     5    21   ar
     7     5    33    1
     8     6    11   ar
     9     6    22   ar
    10     6    34    1
    11     7     8    1
    12     7    13    2
    13     7    15    1
    14     8    14    2
    15     8    16    1
    16     9    12   ar
    17     9    17   ar
    18     9    19    1
    19    10    11   ar
    20    10    18   ar
    21    10    20    1
    22    11    16    1
    23    12    15    1
    24    13    19    1
    25    13    24    1
    26    14    20    1
    27    14    23    1
    28    17    21   ar
    29    17    25   ar
    30    18    22   ar
    31    18    26   ar
    32    21    27   ar
    33    22    28   ar
    34    23    35    1
    35    23    39    1
    36    23    40    1
    37    24    36    1
    38    24    37    1
    39    24    38    1
    40    25    30   ar
    41    25    42    1
    42    26    29   ar
    43    26    41    1
    44    27    31   ar
    45    27    44    1
    46    28    32   ar
    47    28    43    1
    48    29    32   ar
    49    29    45    1
    50    30    31   ar
    51    30    46    1
    52    31    48    1
    53    32    47    1
