@<TRIPOS>MOLECULE
IMPHY001771
 59 58 0 0 0
SMALL
GASTEIGER

@<TRIPOS>ATOM
      1 C           6.3301    0.2500    0.0000 C.3     1  UNL1       -0.0439
      2 C           9.7942    0.2500    0.0000 C.3     1  UNL1       -0.0439
      3 C           7.1962    0.7500    0.0000 C.3     1  UNL1       -0.0505
      4 C           8.9282    0.7500    0.0000 C.3     1  UNL1       -0.0505
      5 C           8.0622    0.2500    0.0000 C.3     1  UNL1       -0.0526
      6 C           5.4641    0.7500    0.0000 C.3     1  UNL1       -0.0505
      7 C          10.6603    0.7500    0.0000 C.3     1  UNL1       -0.0505
      8 C           4.5981    0.2500    0.0000 C.3     1  UNL1       -0.0526
      9 C          11.5263    0.2500    0.0000 C.3     1  UNL1       -0.0526
     10 C           3.7320    0.7500    0.0000 C.3     1  UNL1       -0.0507
     11 C          12.3923    0.7500    0.0000 C.3     1  UNL1       -0.0507
     12 C           6.3301   -0.7500    0.0000 C.3     1  UNL1       -0.0624
     13 C           9.7942   -0.7500    0.0000 C.3     1  UNL1       -0.0624
     14 C           2.8660    0.2500    0.0000 C.3     1  UNL1       -0.0467
     15 C          13.2583    0.2500    0.0000 C.3     1  UNL1       -0.0467
     16 C           2.0000    0.7500    0.0000 C.3     1  UNL1       -0.0627
     17 C           2.8660   -0.7500    0.0000 C.3     1  UNL1       -0.0627
     18 C          14.1244    0.7500    0.0000 C.3     1  UNL1       -0.0627
     19 C          13.2583   -0.7500    0.0000 C.3     1  UNL1       -0.0627
     20 H           6.8671   -0.0600    0.0000 H       1  UNL1        0.0298
     21 H           9.2573   -0.0600    0.0000 H       1  UNL1        0.0298
     22 H           7.5947    1.2250    0.0000 H       1  UNL1        0.0268
     23 H           6.7976    1.2250    0.0000 H       1  UNL1        0.0268
     24 H           9.3267    1.2250    0.0000 H       1  UNL1        0.0268
     25 H           8.5297    1.2250    0.0000 H       1  UNL1        0.0268
     26 H           7.6636   -0.2249    0.0000 H       1  UNL1        0.0265
     27 H           8.4607   -0.2249    0.0000 H       1  UNL1        0.0265
     28 H           5.8626    1.2250    0.0000 H       1  UNL1        0.0268
     29 H           5.0656    1.2250    0.0000 H       1  UNL1        0.0268
     30 H          11.0588    1.2250    0.0000 H       1  UNL1        0.0268
     31 H          10.2617    1.2250    0.0000 H       1  UNL1        0.0268
     32 H           4.1996   -0.2249    0.0000 H       1  UNL1        0.0265
     33 H           4.9966   -0.2249    0.0000 H       1  UNL1        0.0265
     34 H          11.1278   -0.2249    0.0000 H       1  UNL1        0.0265
     35 H          11.9248   -0.2249    0.0000 H       1  UNL1        0.0265
     36 H           4.1306    1.2250    0.0000 H       1  UNL1        0.0268
     37 H           3.3335    1.2250    0.0000 H       1  UNL1        0.0268
     38 H          12.7908    1.2250    0.0000 H       1  UNL1        0.0268
     39 H          11.9938    1.2250    0.0000 H       1  UNL1        0.0268
     40 H           5.7101   -0.7500    0.0000 H       1  UNL1        0.0232
     41 H           6.3301   -1.3700    0.0000 H       1  UNL1        0.0232
     42 H           6.9501   -0.7500    0.0000 H       1  UNL1        0.0232
     43 H           9.1742   -0.7500    0.0000 H       1  UNL1        0.0232
     44 H           9.7942   -1.3700    0.0000 H       1  UNL1        0.0232
     45 H          10.4142   -0.7500    0.0000 H       1  UNL1        0.0232
     46 H           2.8660    0.8700    0.0000 H       1  UNL1        0.0295
     47 H          13.7953   -0.0600    0.0000 H       1  UNL1        0.0295
     48 H           2.3100    1.2869    0.0000 H       1  UNL1        0.0232
     49 H           1.4631    1.0600    0.0000 H       1  UNL1        0.0232
     50 H           1.6900    0.2131    0.0000 H       1  UNL1        0.0232
     51 H           2.2460   -0.7500    0.0000 H       1  UNL1        0.0232
     52 H           2.8660   -1.3700    0.0000 H       1  UNL1        0.0232
     53 H           3.4860   -0.7500    0.0000 H       1  UNL1        0.0232
     54 H          14.4344    0.2131    0.0000 H       1  UNL1        0.0232
     55 H          14.6613    1.0600    0.0000 H       1  UNL1        0.0232
     56 H          13.8144    1.2869    0.0000 H       1  UNL1        0.0232
     57 H          12.6383   -0.7500    0.0000 H       1  UNL1        0.0232
     58 H          13.2583   -1.3700    0.0000 H       1  UNL1        0.0232
     59 H          13.8783   -0.7500    0.0000 H       1  UNL1        0.0232
@<TRIPOS>BOND
     1     1     3    1
     2     1     6    1
     3     1    12    1
     4     1    20    1
     5     2     4    1
     6     2     7    1
     7     2    13    1
     8     2    21    1
     9     3     5    1
    10     3    22    1
    11     3    23    1
    12     4     5    1
    13     4    24    1
    14     4    25    1
    15     5    26    1
    16     5    27    1
    17     6     8    1
    18     6    28    1
    19     6    29    1
    20     7     9    1
    21     7    30    1
    22     7    31    1
    23     8    10    1
    24     8    32    1
    25     8    33    1
    26     9    11    1
    27     9    34    1
    28     9    35    1
    29    10    14    1
    30    10    36    1
    31    10    37    1
    32    11    15    1
    33    11    38    1
    34    11    39    1
    35    12    40    1
    36    12    41    1
    37    12    42    1
    38    13    43    1
    39    13    44    1
    40    13    45    1
    41    14    16    1
    42    14    17    1
    43    14    46    1
    44    15    18    1
    45    15    19    1
    46    15    47    1
    47    16    48    1
    48    16    49    1
    49    16    50    1
    50    17    51    1
    51    17    52    1
    52    17    53    1
    53    18    54    1
    54    18    55    1
    55    18    56    1
    56    19    57    1
    57    19    58    1
    58    19    59    1
