@<TRIPOS>MOLECULE
IMPHY009758
 29 29 0 0 0
SMALL
GASTEIGER

@<TRIPOS>ATOM
      1 O           2.5369    0.7500    0.0000 O.2     1  UNL1       -0.5111
      2 C           4.2690    0.7500    0.0000 C.3     1  UNL1        0.0184
      3 C           5.1350    0.2500    0.0000 C.3     1  UNL1       -0.0426
      4 C           5.1350   -0.7500    0.0000 C.3     1  UNL1       -0.0462
      5 C           4.2690    1.7500    0.0000 C.3     1  UNL1       -0.0371
      6 C           4.2690   -1.2500    0.0000 C.3     1  UNL1       -0.0223
      7 C           3.4030    0.2500    0.0000 C.2     1  UNL1        0.0937
      8 C           3.4030   -0.7500    0.0000 C.2     1  UNL1       -0.0436
      9 C           5.1350    2.2500    0.0000 C.3     1  UNL1       -0.0620
     10 C           3.4030    2.2500    0.0000 C.3     1  UNL1       -0.0620
     11 C           4.2690   -2.2500    0.0000 C.3     1  UNL1       -0.0588
     12 H           4.8059    1.0600    0.0000 H       1  UNL1        0.0381
     13 H           5.7456    0.1423    0.0000 H       1  UNL1        0.0272
     14 H           5.3471    0.8326    0.0000 H       1  UNL1        0.0272
     15 H           4.2690    2.3700    0.0000 H       1  UNL1        0.0302
     16 H           5.3471   -1.3326    0.0000 H       1  UNL1        0.0271
     17 H           5.7456   -0.6423    0.0000 H       1  UNL1        0.0271
     18 H           4.8059   -1.5600    0.0000 H       1  UNL1        0.0341
     19 H           2.8660   -1.0600    0.0000 H       1  UNL1        0.0608
     20 H           5.4450    1.7131    0.0000 H       1  UNL1        0.0233
     21 H           3.7130    2.7869    0.0000 H       1  UNL1        0.0233
     22 H           2.8660    2.5600    0.0000 H       1  UNL1        0.0233
     23 H           3.0930    1.7131    0.0000 H       1  UNL1        0.0233
     24 H           5.6720    2.5600    0.0000 H       1  UNL1        0.0233
     25 H           4.8250    2.7869    0.0000 H       1  UNL1        0.0233
     26 H           3.6490   -2.2500    0.0000 H       1  UNL1        0.0235
     27 H           4.2690   -2.8700    0.0000 H       1  UNL1        0.0235
     28 H           4.8890   -2.2500    0.0000 H       1  UNL1        0.0235
     29 H           2.0000    0.4400    0.0000 H       1  UNL1        0.2916
@<TRIPOS>BOND
     1     1     7    1
     2     1    29    1
     3     2     3    1
     4     2     5    1
     5     2     7    1
     6     2    12    1
     7     3     4    1
     8     3    13    1
     9     3    14    1
    10     4     6    1
    11     4    16    1
    12     4    17    1
    13     5     9    1
    14     5    10    1
    15     5    15    1
    16     6     8    1
    17     6    11    1
    18     6    18    1
    19     7     8    2
    20     8    19    1
    21     9    20    1
    22     9    24    1
    23     9    25    1
    24    10    21    1
    25    10    22    1
    26    10    23    1
    27    11    26    1
    28    11    27    1
    29    11    28    1
