@<TRIPOS>MOLECULE
IMPHY003615
 47 49 0 0 0
SMALL
GASTEIGER

@<TRIPOS>ATOM
      1 O           4.5787    0.1857    0.0000 O.3     1  UNL1       -0.4561
      2 O           7.1188   -0.3031    0.0000 O.3     1  UNL1       -0.4579
      3 O           2.8660    0.1969    0.0000 O.2     1  UNL1       -0.2453
      4 O           6.5309   -2.7355    0.0000 O.3     1  UNL1       -0.3736
      5 O           7.9848   -1.7808    0.0000 O.2     1  UNL1       -0.2472
      6 N           5.4255    2.6299    0.0000 N.3     1  UNL1       -0.2886
      7 C           5.4255    1.6522    0.0000 C.3     1  UNL1        0.0723
      8 C           4.5787    1.1634    0.0000 C.3     1  UNL1        0.1239
      9 C           3.8842    2.0922    0.0000 C.3     1  UNL1       -0.0010
     10 C           4.4056    2.8743    0.0000 C.3     1  UNL1        0.0033
     11 C           6.2721    1.1634    0.0000 C.2     1  UNL1       -0.0148
     12 C           6.3609    2.8960    0.0000 C.3     1  UNL1        0.0182
     13 C           6.9692    2.0922    0.0000 C.2     1  UNL1       -0.0660
     14 C           6.2721    0.1857    0.0000 C.3     1  UNL1        0.1153
     15 C           3.7320   -0.3031    0.0000 C.2     1  UNL1        0.3355
     16 C           6.2721   -1.7696    0.0000 C.3     1  UNL1        0.1806
     17 C           3.7320   -1.2808    0.0000 C.2     1  UNL1        0.0365
     18 C           7.1188   -1.2808    0.0000 C.2     1  UNL1        0.3434
     19 C           4.5787   -1.7696    0.0000 C.3     1  UNL1        0.0029
     20 C           5.4255   -1.2808    0.0000 C.2     1  UNL1       -0.0305
     21 C           5.5651   -2.4768    0.0000 C.3     1  UNL1       -0.0216
     22 C           2.8660   -1.7808    0.0000 C.2     1  UNL1       -0.0768
     23 C           5.4255   -0.2808    0.0000 C.2     1  UNL1       -0.0959
     24 C           2.0000   -1.2808    0.0000 C.3     1  UNL1       -0.0460
     25 H           5.4255    0.8022    0.0000 H       1  UNL1        0.0547
     26 H           3.7721    0.8952    0.0000 H       1  UNL1        0.0753
     27 H           3.4106    2.4923    0.0000 H       1  UNL1        0.0314
     28 H           3.4329    1.6670    0.0000 H       1  UNL1        0.0314
     29 H           4.6198    3.4561    0.0000 H       1  UNL1        0.0428
     30 H           3.8529    3.1553    0.0000 H       1  UNL1        0.0428
     31 H           6.8976    3.2064    0.0000 H       1  UNL1        0.0470
     32 H           6.1190    3.4669    0.0000 H       1  UNL1        0.0470
     33 H           7.5892    2.0934    0.0000 H       1  UNL1        0.0586
     34 H           5.6615    0.2934    0.0000 H       1  UNL1        0.0746
     35 H           6.0601   -0.3969    0.0000 H       1  UNL1        0.0746
     36 H           4.1802   -2.2445    0.0000 H       1  UNL1        0.0361
     37 H           4.9772   -2.2446    0.0000 H       1  UNL1        0.0361
     38 H           5.1266   -2.0384    0.0000 H       1  UNL1        0.0266
     39 H           5.1267   -2.9152    0.0000 H       1  UNL1        0.0266
     40 H           6.0035   -2.9151    0.0000 H       1  UNL1        0.0266
     41 H           2.8660   -2.4008    0.0000 H       1  UNL1        0.0574
     42 H           7.1298   -2.8960    0.0000 H       1  UNL1        0.2113
     43 H           5.9624    0.0292    0.0000 H       1  UNL1        0.0536
     44 H           4.8885    0.0292    0.0000 H       1  UNL1        0.0536
     45 H           2.3100   -0.7438    0.0000 H       1  UNL1        0.0272
     46 H           1.4631   -0.9708    0.0000 H       1  UNL1        0.0272
     47 H           1.6900   -1.8177    0.0000 H       1  UNL1        0.0272
@<TRIPOS>BOND
     1     1     8    1
     2     1    15    1
     3     2    14    1
     4     2    18    1
     5     3    15    2
     6    16     4    1
     7     4    42    1
     8     5    18    2
     9     6     7    1
    10     6    10    1
    11     6    12    1
    12     7     8    1
    13     7    11    1
    14     7    25    1
    15     8     9    1
    16     8    26    1
    17     9    10    1
    18     9    27    1
    19     9    28    1
    20    10    29    1
    21    10    30    1
    22    11    13    2
    23    11    14    1
    24    12    13    1
    25    12    31    1
    26    12    32    1
    27    13    33    1
    28    14    34    1
    29    14    35    1
    30    15    17    1
    31    16    18    1
    32    16    20    1
    33    16    21    1
    34    17    19    1
    35    17    22    2
    36    19    20    1
    37    19    36    1
    38    19    37    1
    39    20    23    2
    40    21    38    1
    41    21    39    1
    42    21    40    1
    43    22    24    1
    44    22    41    1
    45    23    43    1
    46    23    44    1
    47    24    45    1
    48    24    46    1
    49    24    47    1
