@<TRIPOS>MOLECULE
IMPHY000631
 20 21 0 0 0
SMALL
GASTEIGER

@<TRIPOS>ATOM
      1 C           0.0000   -4.1300    0.0000 C.3     1  UNL1        0.0000
      2 C           0.0000   -5.4323    0.0000 C.3     1  UNL1        0.0000
      3 C           1.1906   -6.1020    0.0000 C.3     1  UNL1        0.0000
      4 C           1.1906   -3.4603    0.0000 C.3     1  UNL1        0.0000
      5 C           2.3069   -4.1300    0.0000 C.3     1  UNL1        0.0000
      6 C           2.3069   -5.4695    0.0000 C.3     1  UNL1        0.0000
      7 C           3.4603   -6.1020    0.0000 C.3     1  UNL1        0.0000
      8 C           4.6137   -5.4323    0.0000 C.3     1  UNL1        0.0000
      9 C           4.6137   -4.1300    0.0000 C.3     1  UNL1        0.0000
     10 C           3.4603   -3.4603    0.0000 C.3     1  UNL1        0.0000
     11 C           2.3069   -6.8090    0.0000 C.3     1  UNL1        0.0000
     12 C           1.1906   -7.4415    0.0000 C.3     1  UNL1        0.0000
     13 C           5.7672   -3.4603    0.0000 C.3     1  UNL1        0.0000
     14 C           2.7906   -2.3069    0.0000 C.3     1  UNL1        0.0000
     15 C           4.0928   -2.3069    0.0000 C.3     1  UNL1        0.0000
     16 C           5.4695   -2.3069    0.0000 C.3     1  UNL1        0.0000
     17 C           6.1020   -1.1534    0.0000 C.3     1  UNL1        0.0000
     18 C           7.4415   -1.1534    0.0000 C.3     1  UNL1        0.0000
     19 C           5.4695    0.0000    0.0000 C.3     1  UNL1        0.0000
     20 C           8.1112    0.0000    0.0000 C.3     1  UNL1        0.0000
@<TRIPOS>BOND
     1     1     2    1
     2     1     4    1
     3     2     3    1
     4     3    12    1
     5     3     6    1
     6     5     4    1
     7     5     6    1
     8     5    10    1
     9     6    11    1
    10     6     7    1
    11     7     8    1
    12     8     9    1
    13     9    10    1
    14     9    13    1
    15    10    14    1
    16    10    15    1
    17    15    16    1
    18    16    17    1
    19    17    18    1
    20    17    19    1
    21    18    20    1
