@<TRIPOS>MOLECULE
IMPHY013086
 38 39 0 0 0
SMALL
GASTEIGER

@<TRIPOS>ATOM
      1 O           4.2690    0.1550    0.0000 O.3     1  UNL1       -0.3405
      2 O           6.0010    0.1550    0.0000 O.3     1  UNL1       -0.3439
      3 O           4.2690   -2.8450    0.0000 O.3     1  UNL1       -0.3864
      4 O           2.5369   -1.8450    0.0000 O.3     1  UNL1       -0.3865
      5 O           6.0010   -1.8450    0.0000 O.3     1  UNL1       -0.3841
      6 O           2.5369    1.1550    0.0000 O.3     1  UNL1       -0.3924
      7 O           7.7331    0.1550    0.0000 O.3     1  UNL1       -0.5064
      8 C           4.2690   -1.8450    0.0000 C.3     1  UNL1        0.1141
      9 C           3.4030   -1.3450    0.0000 C.3     1  UNL1        0.1119
     10 C           5.1350   -1.3450    0.0000 C.3     1  UNL1        0.1341
     11 C           3.4030   -0.3450    0.0000 C.3     1  UNL1        0.1130
     12 C           5.1350   -0.3450    0.0000 C.3     1  UNL1        0.1883
     13 C           2.5369    0.1550    0.0000 C.3     1  UNL1        0.0730
     14 C           6.0010    1.1550    0.0000 C.3     1  UNL1        0.0792
     15 C           6.8671    1.6550    0.0000 C.ar    1  UNL1        0.0196
     16 C           7.7331    1.1550    0.0000 C.ar    1  UNL1        0.1222
     17 C           6.8671    2.6550    0.0000 C.ar    1  UNL1       -0.0529
     18 C           8.5991    1.6550    0.0000 C.ar    1  UNL1       -0.0198
     19 C           7.7331    3.1550    0.0000 C.ar    1  UNL1       -0.0612
     20 C           8.5991    2.6550    0.0000 C.ar    1  UNL1       -0.0583
     21 H           3.7320   -2.1550    0.0000 H       1  UNL1        0.0648
     22 H           3.4030   -1.9650    0.0000 H       1  UNL1        0.0647
     23 H           5.1350   -1.9650    0.0000 H       1  UNL1        0.0671
     24 H           3.4030    0.2750    0.0000 H       1  UNL1        0.0647
     25 H           5.1350    0.2750    0.0000 H       1  UNL1        0.0938
     26 H           1.9264    0.2627    0.0000 H       1  UNL1        0.0584
     27 H           2.3249   -0.4276    0.0000 H       1  UNL1        0.0584
     28 H           3.7320   -3.1550    0.0000 H       1  UNL1        0.2100
     29 H           2.0000   -1.5350    0.0000 H       1  UNL1        0.2100
     30 H           6.5380   -1.5350    0.0000 H       1  UNL1        0.2101
     31 H           5.7890    1.7376    0.0000 H       1  UNL1        0.0612
     32 H           5.3905    1.0473    0.0000 H       1  UNL1        0.0612
     33 H           2.0000    1.4650    0.0000 H       1  UNL1        0.2095
     34 H           6.3301    2.9650    0.0000 H       1  UNL1        0.0622
     35 H           9.1360    1.3450    0.0000 H       1  UNL1        0.0654
     36 H           7.7331    3.7750    0.0000 H       1  UNL1        0.0618
     37 H           9.1360    2.9650    0.0000 H       1  UNL1        0.0619
     38 H           8.2700   -0.1550    0.0000 H       1  UNL1        0.2921
@<TRIPOS>BOND
     1     1    11    1
     2     1    12    1
     3     2    12    1
     4     2    14    1
     5     3     8    1
     6     3    28    1
     7     4     9    1
     8     4    29    1
     9     5    10    1
    10     5    30    1
    11     6    13    1
    12     6    33    1
    13     7    16    1
    14     7    38    1
    15     8     9    1
    16     8    10    1
    17     8    21    1
    18     9    11    1
    19     9    22    1
    20    10    12    1
    21    10    23    1
    22    11    13    1
    23    11    24    1
    24    12    25    1
    25    13    26    1
    26    13    27    1
    27    14    15    1
    28    14    31    1
    29    14    32    1
    30    15    16   ar
    31    15    17   ar
    32    16    18   ar
    33    17    19   ar
    34    17    34    1
    35    18    20   ar
    36    18    35    1
    37    19    20   ar
    38    19    36    1
    39    20    37    1
