@<TRIPOS>MOLECULE
IMPHY013682
 42 43 0 0 0
SMALL
GASTEIGER

@<TRIPOS>ATOM
      1 O           4.2690    0.1550    0.0000 O.3     1  UNL1       -0.3312
      2 O           4.2690   -2.8450    0.0000 O.3     1  UNL1       -0.3864
      3 O           2.5369   -1.8450    0.0000 O.3     1  UNL1       -0.3865
      4 O           6.0010    0.1550    0.0000 O.3     1  UNL1       -0.4287
      5 O           6.0010   -1.8450    0.0000 O.3     1  UNL1       -0.3829
      6 O           2.5369    1.1550    0.0000 O.3     1  UNL1       -0.3924
      7 O           5.1350    1.6550    0.0000 O.2     1  UNL1       -0.2449
      8 C           3.4030   -1.3450    0.0000 C.3     1  UNL1        0.1120
      9 C           4.2690   -1.8450    0.0000 C.3     1  UNL1        0.1152
     10 C           3.4030   -0.3450    0.0000 C.3     1  UNL1        0.1140
     11 C           5.1350   -1.3450    0.0000 C.3     1  UNL1        0.1455
     12 C           5.1350   -0.3450    0.0000 C.3     1  UNL1        0.2341
     13 C           2.5369    0.1550    0.0000 C.3     1  UNL1        0.0731
     14 C           6.0010    1.1550    0.0000 C.2     1  UNL1        0.3419
     15 C           6.8671    1.6550    0.0000 C.ar    1  UNL1        0.0649
     16 C           7.7331    1.1550    0.0000 C.ar    1  UNL1       -0.0362
     17 C           6.8671    2.6550    0.0000 C.ar    1  UNL1       -0.0362
     18 C           8.5991    1.6550    0.0000 C.ar    1  UNL1       -0.0580
     19 C           7.7331    3.1550    0.0000 C.ar    1  UNL1       -0.0580
     20 C           7.7331    0.1550    0.0000 C.3     1  UNL1       -0.0389
     21 C           6.0010    3.1550    0.0000 C.3     1  UNL1       -0.0389
     22 C           8.5991    2.6550    0.0000 C.ar    1  UNL1       -0.0612
     23 H           3.7320   -2.1550    0.0000 H       1  UNL1        0.0648
     24 H           3.4030   -1.9650    0.0000 H       1  UNL1        0.0647
     25 H           3.4030    0.2750    0.0000 H       1  UNL1        0.0647
     26 H           5.1350   -1.9650    0.0000 H       1  UNL1        0.0683
     27 H           5.1350    0.2750    0.0000 H       1  UNL1        0.1085
     28 H           1.9264    0.2627    0.0000 H       1  UNL1        0.0584
     29 H           2.3249   -0.4276    0.0000 H       1  UNL1        0.0584
     30 H           3.7320   -3.1550    0.0000 H       1  UNL1        0.2100
     31 H           2.0000   -1.5350    0.0000 H       1  UNL1        0.2100
     32 H           6.5380   -1.5350    0.0000 H       1  UNL1        0.2102
     33 H           2.0000    1.4650    0.0000 H       1  UNL1        0.2095
     34 H           9.1360    1.3450    0.0000 H       1  UNL1        0.0620
     35 H           7.7331    3.7750    0.0000 H       1  UNL1        0.0620
     36 H           7.1131    0.1550    0.0000 H       1  UNL1        0.0278
     37 H           7.7331   -0.4650    0.0000 H       1  UNL1        0.0278
     38 H           8.3531    0.1550    0.0000 H       1  UNL1        0.0278
     39 H           6.3110    3.6919    0.0000 H       1  UNL1        0.0278
     40 H           5.4641    3.4650    0.0000 H       1  UNL1        0.0278
     41 H           5.6910    2.6181    0.0000 H       1  UNL1        0.0278
     42 H           9.1360    2.9650    0.0000 H       1  UNL1        0.0618
@<TRIPOS>BOND
     1     1    10    1
     2     1    12    1
     3     2     9    1
     4     2    30    1
     5     3     8    1
     6     3    31    1
     7     4    12    1
     8     4    14    1
     9     5    11    1
    10     5    32    1
    11     6    13    1
    12     6    33    1
    13     7    14    2
    14     8     9    1
    15     8    10    1
    16     8    24    1
    17     9    11    1
    18     9    23    1
    19    10    13    1
    20    10    25    1
    21    11    12    1
    22    11    26    1
    23    12    27    1
    24    13    28    1
    25    13    29    1
    26    14    15    1
    27    15    16   ar
    28    15    17   ar
    29    16    18   ar
    30    16    20    1
    31    17    19   ar
    32    17    21    1
    33    18    22   ar
    34    18    34    1
    35    19    22   ar
    36    19    35    1
    37    20    36    1
    38    20    37    1
    39    20    38    1
    40    21    39    1
    41    21    40    1
    42    21    41    1
    43    22    42    1
