@<TRIPOS>MOLECULE
IMPHY005106
 42 43 0 0 0
SMALL
GASTEIGER

@<TRIPOS>ATOM
      1 O           4.2690   -0.9050    0.0000 O.3     1  UNL1       -0.3312
      2 O           2.5369   -2.9050    0.0000 O.3     1  UNL1       -0.3865
      3 O           4.2690   -3.9050    0.0000 O.3     1  UNL1       -0.3864
      4 O           6.0010   -2.9050    0.0000 O.3     1  UNL1       -0.3829
      5 O           6.0010   -0.9050    0.0000 O.3     1  UNL1       -0.4292
      6 O           2.5369    0.0950    0.0000 O.3     1  UNL1       -0.3924
      7 O           5.1350    0.5950    0.0000 O.2     1  UNL1       -0.2455
      8 O          10.3312    1.5950    0.0000 O.3     1  UNL1       -0.5033
      9 O          10.3312    3.5950    0.0000 O.3     1  UNL1       -0.5033
     10 C           3.4030   -2.4050    0.0000 C.3     1  UNL1        0.1120
     11 C           4.2690   -2.9050    0.0000 C.3     1  UNL1        0.1152
     12 C           3.4030   -1.4050    0.0000 C.3     1  UNL1        0.1140
     13 C           5.1350   -2.4050    0.0000 C.3     1  UNL1        0.1455
     14 C           5.1350   -1.4050    0.0000 C.3     1  UNL1        0.2340
     15 C           2.5369   -0.9050    0.0000 C.3     1  UNL1        0.0731
     16 C           6.0010    0.0950    0.0000 C.2     1  UNL1        0.3342
     17 C           6.8671    0.5950    0.0000 C.2     1  UNL1        0.0231
     18 C           6.8671    1.5950    0.0000 C.2     1  UNL1       -0.0477
     19 C           7.7331    2.0950    0.0000 C.ar    1  UNL1       -0.0211
     20 C           8.5991    1.5950    0.0000 C.ar    1  UNL1       -0.0094
     21 C           7.7331    3.0950    0.0000 C.ar    1  UNL1       -0.0509
     22 C           9.4651    2.0950    0.0000 C.ar    1  UNL1        0.1588
     23 C           8.5991    3.5950    0.0000 C.ar    1  UNL1       -0.0160
     24 C           9.4651    3.0950    0.0000 C.ar    1  UNL1        0.1582
     25 H           3.4030   -3.0250    0.0000 H       1  UNL1        0.0647
     26 H           4.8059   -3.2150    0.0000 H       1  UNL1        0.0648
     27 H           3.4030   -0.7850    0.0000 H       1  UNL1        0.0647
     28 H           5.6720   -2.0950    0.0000 H       1  UNL1        0.0683
     29 H           5.1350   -0.7850    0.0000 H       1  UNL1        0.1085
     30 H           1.9264   -0.7973    0.0000 H       1  UNL1        0.0584
     31 H           2.3249   -1.4876    0.0000 H       1  UNL1        0.0584
     32 H           2.0000   -2.5950    0.0000 H       1  UNL1        0.2100
     33 H           3.7320   -4.2150    0.0000 H       1  UNL1        0.2100
     34 H           6.5380   -2.5950    0.0000 H       1  UNL1        0.2102
     35 H           2.0000    0.4050    0.0000 H       1  UNL1        0.2095
     36 H           7.4040    0.2850    0.0000 H       1  UNL1        0.0689
     37 H           6.3301    1.9050    0.0000 H       1  UNL1        0.0626
     38 H           8.5991    0.9750    0.0000 H       1  UNL1        0.0661
     39 H           7.1962    3.4050    0.0000 H       1  UNL1        0.0625
     40 H           8.5991    4.2150    0.0000 H       1  UNL1        0.0655
     41 H          10.8681    1.9050    0.0000 H       1  UNL1        0.2923
     42 H          10.3312    4.2150    0.0000 H       1  UNL1        0.2923
@<TRIPOS>BOND
     1     1    12    1
     2     1    14    1
     3    10     2    1
     4     2    32    1
     5    11     3    1
     6     3    33    1
     7    13     4    1
     8     4    34    1
     9    14     5    1
    10     5    16    1
    11     6    15    1
    12     6    35    1
    13     7    16    2
    14     8    22    1
    15     8    41    1
    16     9    24    1
    17     9    42    1
    18    10    11    1
    19    10    12    1
    20    10    25    1
    21    11    13    1
    22    11    26    1
    23    12    15    1
    24    12    27    1
    25    13    14    1
    26    13    28    1
    27    14    29    1
    28    15    30    1
    29    15    31    1
    30    16    17    1
    31    17    18    2
    32    17    36    1
    33    18    19    1
    34    18    37    1
    35    19    20   ar
    36    19    21   ar
    37    20    22   ar
    38    20    38    1
    39    21    23   ar
    40    21    39    1
    41    22    24   ar
    42    23    24   ar
    43    23    40    1
