@<TRIPOS>MOLECULE
IMPHY012767
 49 48 0 0 0
SMALL
GASTEIGER

@<TRIPOS>ATOM
      1 O          17.5885    0.2500    0.0000 O.2     1  UNL1       -0.3010
      2 C          13.2583   -0.2500    0.0000 C.3     1  UNL1       -0.0530
      3 C          12.3923    0.2500    0.0000 C.3     1  UNL1       -0.0528
      4 C          14.1244    0.2500    0.0000 C.3     1  UNL1       -0.0527
      5 C          11.5263   -0.2500    0.0000 C.3     1  UNL1       -0.0496
      6 C          14.9904   -0.2500    0.0000 C.3     1  UNL1       -0.0466
      7 C          10.6603    0.2500    0.0000 C.3     1  UNL1       -0.0348
      8 C          15.8564    0.2500    0.0000 C.3     1  UNL1        0.0028
      9 C           9.7942   -0.2500    0.0000 C.2     1  UNL1       -0.0876
     10 C           8.9282    0.2500    0.0000 C.2     1  UNL1       -0.0842
     11 C          16.7224   -0.2500    0.0000 C.2     1  UNL1        0.1203
     12 C           8.0622   -0.2500    0.0000 C.3     1  UNL1       -0.0165
     13 C           7.1962    0.2500    0.0000 C.2     1  UNL1       -0.0839
     14 C           6.3301   -0.2500    0.0000 C.2     1  UNL1       -0.0839
     15 C           5.4641    0.2500    0.0000 C.3     1  UNL1       -0.0165
     16 C           4.5981   -0.2500    0.0000 C.2     1  UNL1       -0.0842
     17 C           3.7320    0.2500    0.0000 C.2     1  UNL1       -0.0879
     18 C           2.8660   -0.2500    0.0000 C.3     1  UNL1       -0.0376
     19 C           2.0000    0.2500    0.0000 C.3     1  UNL1       -0.0618
     20 H          12.8598   -0.7249    0.0000 H       1  UNL1        0.0265
     21 H          13.6569   -0.7249    0.0000 H       1  UNL1        0.0265
     22 H          12.7908    0.7249    0.0000 H       1  UNL1        0.0265
     23 H          11.9938    0.7249    0.0000 H       1  UNL1        0.0265
     24 H          14.5229    0.7249    0.0000 H       1  UNL1        0.0265
     25 H          13.7258    0.7249    0.0000 H       1  UNL1        0.0265
     26 H          11.1278   -0.7249    0.0000 H       1  UNL1        0.0268
     27 H          11.9248   -0.7249    0.0000 H       1  UNL1        0.0268
     28 H          14.5919   -0.7249    0.0000 H       1  UNL1        0.0269
     29 H          15.3889   -0.7249    0.0000 H       1  UNL1        0.0269
     30 H          11.0588    0.7249    0.0000 H       1  UNL1        0.0307
     31 H          10.2617    0.7249    0.0000 H       1  UNL1        0.0307
     32 H          16.2549    0.7249    0.0000 H       1  UNL1        0.0339
     33 H          15.4579    0.7249    0.0000 H       1  UNL1        0.0339
     34 H           9.7942   -0.8700    0.0000 H       1  UNL1        0.0569
     35 H           8.9282    0.8700    0.0000 H       1  UNL1        0.0572
     36 H          16.7224   -0.8700    0.0000 H       1  UNL1        0.1026
     37 H           7.6636   -0.7249    0.0000 H       1  UNL1        0.0350
     38 H           8.4607   -0.7249    0.0000 H       1  UNL1        0.0350
     39 H           7.1962    0.8700    0.0000 H       1  UNL1        0.0572
     40 H           6.3301   -0.8700    0.0000 H       1  UNL1        0.0572
     41 H           5.8626    0.7249    0.0000 H       1  UNL1        0.0350
     42 H           5.0656    0.7249    0.0000 H       1  UNL1        0.0350
     43 H           4.5981   -0.8700    0.0000 H       1  UNL1        0.0572
     44 H           2.4675   -0.7249    0.0000 H       1  UNL1        0.0305
     45 H           3.2646   -0.7249    0.0000 H       1  UNL1        0.0305
     46 H           3.7320    0.8700    0.0000 H       1  UNL1        0.0569
     47 H           2.3100    0.7869    0.0000 H       1  UNL1        0.0233
     48 H           1.4631    0.5600    0.0000 H       1  UNL1        0.0233
     49 H           1.6900   -0.2869    0.0000 H       1  UNL1        0.0233
@<TRIPOS>BOND
     1     1    11    2
     2     2     3    1
     3     2     4    1
     4     2    20    1
     5     2    21    1
     6     3     5    1
     7     3    22    1
     8     3    23    1
     9     4     6    1
    10     4    24    1
    11     4    25    1
    12     5     7    1
    13     5    26    1
    14     5    27    1
    15     6     8    1
    16     6    28    1
    17     6    29    1
    18     7     9    1
    19     7    30    1
    20     7    31    1
    21     8    11    1
    22     8    32    1
    23     8    33    1
    24     9    10    2
    25     9    34    1
    26    10    12    1
    27    10    35    1
    28    11    36    1
    29    12    13    1
    30    12    37    1
    31    12    38    1
    32    13    14    2
    33    13    39    1
    34    14    15    1
    35    14    40    1
    36    15    16    1
    37    15    41    1
    38    15    42    1
    39    16    17    2
    40    16    43    1
    41    17    18    1
    42    17    46    1
    43    18    19    1
    44    18    44    1
    45    18    45    1
    46    19    47    1
    47    19    48    1
    48    19    49    1
