@<TRIPOS>MOLECULE
IMPHY016679
 47 46 0 0 0
SMALL
GASTEIGER

@<TRIPOS>ATOM
      1 O           8.9282    0.7500    0.0000 O.3     1  UNL1       -0.4646
      2 O           8.0622   -0.7500    0.0000 O.2     1  UNL1       -0.2509
      3 C           5.4641    0.7500    0.0000 C.3     1  UNL1       -0.0526
      4 C           4.5981    0.2500    0.0000 C.3     1  UNL1       -0.0531
      5 C          11.5263    0.2500    0.0000 C.3     1  UNL1       -0.0500
      6 C          12.3923    0.7500    0.0000 C.3     1  UNL1       -0.0530
      7 C           6.3301    0.2500    0.0000 C.3     1  UNL1       -0.0430
      8 C           3.7320    0.7500    0.0000 C.3     1  UNL1       -0.0533
      9 C          10.6603    0.7500    0.0000 C.3     1  UNL1       -0.0185
     10 C          13.2583    0.2500    0.0000 C.3     1  UNL1       -0.0533
     11 C           7.1962    0.7500    0.0000 C.3     1  UNL1        0.0449
     12 C           2.8660    0.2500    0.0000 C.3     1  UNL1       -0.0559
     13 C           9.7942    0.2500    0.0000 C.3     1  UNL1        0.0925
     14 C          14.1244    0.7500    0.0000 C.3     1  UNL1       -0.0559
     15 C           8.0622    0.2500    0.0000 C.2     1  UNL1        0.3071
     16 C           2.0000    0.7500    0.0000 C.3     1  UNL1       -0.0653
     17 C          14.9904    0.2500    0.0000 C.3     1  UNL1       -0.0653
     18 H           5.8626    1.2250    0.0000 H       1  UNL1        0.0265
     19 H           5.0656    1.2250    0.0000 H       1  UNL1        0.0265
     20 H           4.1996   -0.2249    0.0000 H       1  UNL1        0.0265
     21 H           4.9966   -0.2249    0.0000 H       1  UNL1        0.0265
     22 H          11.1278   -0.2249    0.0000 H       1  UNL1        0.0266
     23 H          11.9248   -0.2249    0.0000 H       1  UNL1        0.0266
     24 H          12.7908    1.2250    0.0000 H       1  UNL1        0.0265
     25 H          11.9938    1.2250    0.0000 H       1  UNL1        0.0265
     26 H           5.9316   -0.2249    0.0000 H       1  UNL1        0.0270
     27 H           6.7287   -0.2249    0.0000 H       1  UNL1        0.0270
     28 H           4.1306    1.2250    0.0000 H       1  UNL1        0.0265
     29 H           3.3335    1.2250    0.0000 H       1  UNL1        0.0265
     30 H          11.0588    1.2250    0.0000 H       1  UNL1        0.0298
     31 H          10.2617    1.2250    0.0000 H       1  UNL1        0.0298
     32 H          12.8598   -0.2249    0.0000 H       1  UNL1        0.0265
     33 H          13.6569   -0.2249    0.0000 H       1  UNL1        0.0265
     34 H           7.5947    1.2250    0.0000 H       1  UNL1        0.0377
     35 H           6.7976    1.2250    0.0000 H       1  UNL1        0.0377
     36 H           2.4675   -0.2249    0.0000 H       1  UNL1        0.0263
     37 H           3.2646   -0.2249    0.0000 H       1  UNL1        0.0263
     38 H           9.3957   -0.2249    0.0000 H       1  UNL1        0.0697
     39 H          10.1928   -0.2249    0.0000 H       1  UNL1        0.0697
     40 H          14.5229    1.2250    0.0000 H       1  UNL1        0.0263
     41 H          13.7258    1.2250    0.0000 H       1  UNL1        0.0263
     42 H           2.3100    1.2869    0.0000 H       1  UNL1        0.0230
     43 H           1.4631    1.0600    0.0000 H       1  UNL1        0.0230
     44 H           1.6900    0.2131    0.0000 H       1  UNL1        0.0230
     45 H          14.6804   -0.2869    0.0000 H       1  UNL1        0.0230
     46 H          15.5273   -0.0600    0.0000 H       1  UNL1        0.0230
     47 H          15.3004    0.7869    0.0000 H       1  UNL1        0.0230
@<TRIPOS>BOND
     1     1    13    1
     2     1    15    1
     3     2    15    2
     4     3     4    1
     5     3     7    1
     6     3    18    1
     7     3    19    1
     8     4     8    1
     9     4    20    1
    10     4    21    1
    11     5     6    1
    12     5     9    1
    13     5    22    1
    14     5    23    1
    15     6    10    1
    16     6    24    1
    17     6    25    1
    18     7    11    1
    19     7    26    1
    20     7    27    1
    21     8    12    1
    22     8    28    1
    23     8    29    1
    24     9    13    1
    25     9    30    1
    26     9    31    1
    27    10    14    1
    28    10    32    1
    29    10    33    1
    30    11    15    1
    31    11    34    1
    32    11    35    1
    33    12    16    1
    34    12    36    1
    35    12    37    1
    36    13    38    1
    37    13    39    1
    38    14    17    1
    39    14    40    1
    40    14    41    1
    41    16    42    1
    42    16    43    1
    43    16    44    1
    44    17    45    1
    45    17    46    1
    46    17    47    1
