@<TRIPOS>MOLECULE
IMPHY006081
 60 63 0 0 0
SMALL
GASTEIGER

@<TRIPOS>ATOM
      1 O           5.2414    1.9182    0.0000 O.3     1  UNL1       -0.3882
      2 O           3.6718   -1.0713    0.0000 O.3     1  UNL1       -0.3850
      3 O           7.5538    0.9121    0.0000 O.3     1  UNL1       -0.3909
      4 O           8.0616   -2.0478    0.0000 O.3     1  UNL1       -0.3885
      5 O           4.5559   -2.0493    0.0000 O.3     1  UNL1       -0.3889
      6 O           2.0502    1.3462    0.0000 O.3     1  UNL1       -0.3911
      7 C           6.2530   -0.6569    0.0000 C.3     1  UNL1        0.0075
      8 C           6.2480    0.3431    0.0000 C.3     1  UNL1       -0.0038
      9 C           5.4741    0.9456    0.0000 C.3     1  UNL1        0.0723
     10 C           4.5199    0.7187    0.0000 C.3     1  UNL1        0.0221
     11 C           4.0999   -0.1676    0.0000 C.3     1  UNL1        0.1047
     12 C           7.2638   -0.0450    0.0000 C.3     1  UNL1        0.0668
     13 C           8.4411   -0.1460    0.0000 C.3     1  UNL1        0.0142
     14 C           7.0379   -1.2764    0.0000 C.3     1  UNL1       -0.0155
     15 C           5.4851   -1.2670    0.0000 C.3     1  UNL1       -0.0157
     16 C           8.0117   -1.0491    0.0000 C.3     1  UNL1        0.0691
     17 C           4.5287   -1.0497    0.0000 C.3     1  UNL1        0.0854
     18 C           7.0267    0.9705    0.0000 C.3     1  UNL1       -0.0466
     19 C           3.1333   -0.0403    0.0000 C.3     1  UNL1        0.0226
     20 C           8.0027    0.7528    0.0000 C.3     1  UNL1       -0.0449
     21 C           3.8092    1.3862    0.0000 C.3     1  UNL1       -0.0181
     22 C           2.9539    0.9180    0.0000 C.3     1  UNL1        0.0635
     23 C           6.0894    1.7339    0.0000 C.3     1  UNL1       -0.0354
     24 C           8.9770   -1.3103    0.0000 C.3     1  UNL1       -0.0357
     25 C           2.1502   -0.2234    0.0000 C.3     1  UNL1       -0.0547
     26 C           3.0036   -1.0319    0.0000 C.3     1  UNL1       -0.0547
     27 H           6.2438    1.1931    0.0000 H       1  UNL1        0.0335
     28 H           4.7386    1.5401    0.0000 H       1  UNL1        0.0358
     29 H           6.7741    0.3353    0.0000 H       1  UNL1        0.0602
     30 H           9.2688    0.0473    0.0000 H       1  UNL1        0.0354
     31 H           6.5551   -1.6654    0.0000 H       1  UNL1        0.0299
     32 H           7.3097   -1.8337    0.0000 H       1  UNL1        0.0299
     33 H           5.2161   -1.8257    0.0000 H       1  UNL1        0.0297
     34 H           5.9695   -1.6540    0.0000 H       1  UNL1        0.0297
     35 H           4.9141   -0.5641    0.0000 H       1  UNL1        0.0622
     36 H           7.2929    1.5304    0.0000 H       1  UNL1        0.0269
     37 H           6.5400    1.3546    0.0000 H       1  UNL1        0.0269
     38 H           8.6065    0.8938    0.0000 H       1  UNL1        0.0270
     39 H           7.9996    1.3728    0.0000 H       1  UNL1        0.0270
     40 H           4.2788    1.7910    0.0000 H       1  UNL1        0.0295
     41 H           3.4559    1.8957    0.0000 H       1  UNL1        0.0295
     42 H           2.4629    0.5395    0.0000 H       1  UNL1        0.0599
     43 H           6.5781    1.3524    0.0000 H       1  UNL1        0.0257
     44 H           6.4709    2.2226    0.0000 H       1  UNL1        0.0257
     45 H           5.6007    2.1154    0.0000 H       1  UNL1        0.0257
     46 H           8.8150   -1.9088    0.0000 H       1  UNL1        0.0257
     47 H           9.5755   -1.4723    0.0000 H       1  UNL1        0.0257
     48 H           9.1390   -0.7118    0.0000 H       1  UNL1        0.0257
     49 H           2.0367    0.3861    0.0000 H       1  UNL1        0.0237
     50 H           1.5407   -0.3369    0.0000 H       1  UNL1        0.0237
     51 H           2.2637   -0.8329    0.0000 H       1  UNL1        0.0237
     52 H           2.3888   -0.9515    0.0000 H       1  UNL1        0.0237
     53 H           2.9232   -1.6467    0.0000 H       1  UNL1        0.0237
     54 H           3.6184   -1.1123    0.0000 H       1  UNL1        0.0237
     55 H           5.6915    2.3446    0.0000 H       1  UNL1        0.2102
     56 H           3.6139   -1.6886    0.0000 H       1  UNL1        0.2103
     57 H           7.7336    1.5054    0.0000 H       1  UNL1        0.2098
     58 H           8.6133   -2.3307    0.0000 H       1  UNL1        0.2102
     59 H           5.1011   -2.3446    0.0000 H       1  UNL1        0.2099
     60 H           2.0000    1.9642    0.0000 H       1  UNL1        0.2098
@<TRIPOS>BOND
     1     9     1    1
     2     1    55    1
     3    11     2    1
     4     2    56    1
     5    12     3    1
     6     3    57    1
     7    16     4    1
     8     4    58    1
     9    17     5    1
    10     5    59    1
    11    22     6    1
    12     6    60    1
    13     7     8    1
    14     7    12    1
    15     7    14    1
    16     7    15    1
    17     8     9    1
    18     8    18    1
    19     8    27    1
    20     9    10    1
    21     9    23    1
    22    10    11    1
    23    10    21    1
    24    10    28    1
    25    11    17    1
    26    11    19    1
    27    12    13    1
    28    12    29    1
    29    13    16    1
    30    13    20    1
    31    13    30    1
    32    14    16    1
    33    14    31    1
    34    14    32    1
    35    15    17    1
    36    15    33    1
    37    15    34    1
    38    16    24    1
    39    17    35    1
    40    18    20    1
    41    18    36    1
    42    18    37    1
    43    19    22    1
    44    19    25    1
    45    19    26    1
    46    20    38    1
    47    20    39    1
    48    21    22    1
    49    21    40    1
    50    21    41    1
    51    22    42    1
    52    23    43    1
    53    23    44    1
    54    23    45    1
    55    24    46    1
    56    24    47    1
    57    24    48    1
    58    25    49    1
    59    25    50    1
    60    25    51    1
    61    26    52    1
    62    26    53    1
    63    26    54    1
