@<TRIPOS>MOLECULE
IMPHY005614
 38 39 0 0 0
SMALL
GASTEIGER

@<TRIPOS>ATOM
      1 O           4.2690    2.0600    0.0000 O.3     1  UNL1       -0.4877
      2 O           7.7331    0.0600    0.0000 O.3     1  UNL1       -0.5065
      3 C           3.4030   -1.4400    0.0000 C.3     1  UNL1       -0.0286
      4 C           2.5369   -0.9400    0.0000 C.3     1  UNL1       -0.0307
      5 C           4.2690   -0.9400    0.0000 C.2     1  UNL1       -0.0759
      6 C           6.0010   -0.9400    0.0000 C.3     1  UNL1       -0.0057
      7 C           5.1350   -1.4400    0.0000 C.2     1  UNL1       -0.0806
      8 C           6.0010    0.0600    0.0000 C.ar    1  UNL1        0.0012
      9 C           2.5369    0.0600    0.0000 C.2     1  UNL1       -0.0816
     10 C           3.4030    0.5600    0.0000 C.2     1  UNL1       -0.0397
     11 C           3.4030    1.5600    0.0000 C.3     1  UNL1        0.1105
     12 C           5.1350    0.5600    0.0000 C.ar    1  UNL1       -0.0130
     13 C           4.9118   -0.1740    0.0000 C.3     1  UNL1       -0.0438
     14 C           5.1350    1.5600    0.0000 C.ar    1  UNL1        0.1215
     15 C           6.8671    0.5600    0.0000 C.ar    1  UNL1        0.1205
     16 C           4.3878    0.7336    0.0000 C.3     1  UNL1       -0.0406
     17 C           6.0010    2.0600    0.0000 C.ar    1  UNL1       -0.0165
     18 C           6.8671    1.5600    0.0000 C.ar    1  UNL1       -0.0164
     19 H           3.0044   -1.9150    0.0000 H       1  UNL1        0.0313
     20 H           3.8015   -1.9150    0.0000 H       1  UNL1        0.0313
     21 H           1.9264   -0.8323    0.0000 H       1  UNL1        0.0310
     22 H           2.3249   -1.5226    0.0000 H       1  UNL1        0.0310
     23 H           6.2131   -1.5226    0.0000 H       1  UNL1        0.0357
     24 H           6.6116   -0.8323    0.0000 H       1  UNL1        0.0357
     25 H           5.1350   -2.0600    0.0000 H       1  UNL1        0.0575
     26 H           2.0000    0.3700    0.0000 H       1  UNL1        0.0573
     27 H           3.1909    2.1426    0.0000 H       1  UNL1        0.0744
     28 H           2.7924    1.4523    0.0000 H       1  UNL1        0.0744
     29 H           4.5981    0.2500    0.0000 H       1  UNL1        0.0658
     30 H           5.3867   -0.5725    0.0000 H       1  UNL1        0.0274
     31 H           5.3103    0.3010    0.0000 H       1  UNL1        0.0274
     32 H           4.4368    0.2246    0.0000 H       1  UNL1        0.0274
     33 H           4.4954    0.1231    0.0000 H       1  UNL1        0.0275
     34 H           4.9984    0.8413    0.0000 H       1  UNL1        0.0275
     35 H           4.2801    1.3442    0.0000 H       1  UNL1        0.0275
     36 H           6.0010    2.6800    0.0000 H       1  UNL1        0.0655
     37 H           7.4040    1.8700    0.0000 H       1  UNL1        0.0655
     38 H           8.2700    0.3700    0.0000 H       1  UNL1        0.2921
@<TRIPOS>BOND
     1     1    11    1
     2     1    14    1
     3     2    15    1
     4     2    38    1
     5     3     4    1
     6     3     5    1
     7     3    19    1
     8     3    20    1
     9     4     9    1
    10     4    21    1
    11     4    22    1
    12     5     7    2
    13     5    13    1
    14     6     7    1
    15     6     8    1
    16     6    23    1
    17     6    24    1
    18     7    25    1
    19     8    12   ar
    20     8    15   ar
    21     9    10    2
    22     9    26    1
    23    10    11    1
    24    10    16    1
    25    11    27    1
    26    11    28    1
    27    12    14   ar
    28    12    29    1
    29    13    30    1
    30    13    31    1
    31    13    32    1
    32    14    17   ar
    33    15    18   ar
    34    16    33    1
    35    16    34    1
    36    16    35    1
    37    17    18   ar
    38    17    36    1
    39    18    37    1
