@<TRIPOS>MOLECULE
IMPHY010456
 29 30 0 0 0
SMALL
GASTEIGER

@<TRIPOS>ATOM
      1 O           6.3580   -1.1897    0.0000 O.2     1  UNL1       -0.4595
      2 O           2.8660    0.8450    0.0000 O.3     1  UNL1       -0.4885
      3 O           2.8660   -1.1550    0.0000 O.3     1  UNL1       -0.4912
      4 O           4.5981    1.8450    0.0000 O.3     1  UNL1       -0.5027
      5 O           6.3465    1.8796    0.0000 O.2     1  UNL1       -0.2869
      6 C           5.4641    0.3450    0.0000 C.ar    1  UNL1        0.1091
      7 C           5.4641   -0.6550    0.0000 C.ar    1  UNL1        0.1460
      8 C           4.5981    0.8450    0.0000 C.ar    1  UNL1        0.1768
      9 C           3.7320    0.3450    0.0000 C.ar    1  UNL1        0.2043
     10 C           4.5981   -1.1550    0.0000 C.ar    1  UNL1        0.0270
     11 C           3.7320   -0.6550    0.0000 C.ar    1  UNL1        0.1687
     12 C           6.3580    0.8797    0.0000 C.ar    1  UNL1        0.1964
     13 C           7.2641   -0.6758    0.0000 C.ar    1  UNL1        0.1062
     14 C           7.2641    0.3658    0.0000 C.ar    1  UNL1        0.0237
     15 C           8.1282   -1.1792    0.0000 C.3     1  UNL1       -0.0062
     16 C           2.0000    0.3450    0.0000 C.3     1  UNL1        0.0791
     17 C           2.8660   -2.1550    0.0000 C.3     1  UNL1        0.0790
     18 H           4.5981   -1.7750    0.0000 H       1  UNL1        0.0692
     19 H           7.7998    0.6779    0.0000 H       1  UNL1        0.0689
     20 H           7.8161   -1.7149    0.0000 H       1  UNL1        0.0308
     21 H           8.6639   -1.4912    0.0000 H       1  UNL1        0.0308
     22 H           8.4403   -0.6434    0.0000 H       1  UNL1        0.0308
     23 H           4.0611    2.1550    0.0000 H       1  UNL1        0.2923
     24 H           1.6900    0.8819    0.0000 H       1  UNL1        0.0660
     25 H           1.4631    0.0350    0.0000 H       1  UNL1        0.0660
     26 H           2.3100   -0.1919    0.0000 H       1  UNL1        0.0660
     27 H           2.2460   -2.1550    0.0000 H       1  UNL1        0.0660
     28 H           2.8660   -2.7750    0.0000 H       1  UNL1        0.0660
     29 H           3.4860   -2.1550    0.0000 H       1  UNL1        0.0660
@<TRIPOS>BOND
     1     1     7   ar
     2     1    13   ar
     3     2     9    1
     4     2    16    1
     5     3    11    1
     6     3    17    1
     7     4     8    1
     8     4    23    1
     9     5    12    2
    10     6     7   ar
    11     6     8   ar
    12     6    12   ar
    13     7    10   ar
    14     8     9   ar
    15     9    11   ar
    16    10    11   ar
    17    10    18    1
    18    12    14   ar
    19    13    14   ar
    20    13    15    1
    21    14    19    1
    22    15    20    1
    23    15    21    1
    24    15    22    1
    25    16    24    1
    26    16    25    1
    27    16    26    1
    28    17    27    1
    29    17    28    1
    30    17    29    1
