@<TRIPOS>MOLECULE
IMPHY005024
 81 85 0 0 0
SMALL
GASTEIGER

@<TRIPOS>ATOM
      1 O           5.1483   -3.5141    0.0000 O.3     1  UNL1       -0.3684
      2 O           6.3178   -1.9045    0.0000 O.3     1  UNL1       -0.4528
      3 O           7.0057   -1.0521    0.0000 O.3     1  UNL1       -0.4545
      4 O           7.4821    0.2944    0.0000 O.3     1  UNL1       -0.3839
      5 O           2.4962   -0.8575    0.0000 O.3     1  UNL1       -0.3906
      6 O           2.6515    0.0333    0.0000 O.3     1  UNL1       -0.3939
      7 O           3.5446    1.9253    0.0000 O.3     1  UNL1       -0.4493
      8 O           3.0030    0.7944    0.0000 O.2     1  UNL1       -0.2923
      9 O           7.5875    2.7063    0.0000 O.3     1  UNL1       -0.3874
     10 O           7.6038   -3.0648    0.0000 O.2     1  UNL1       -0.2511
     11 O           8.4245   -0.0587    0.0000 O.2     1  UNL1       -0.2449
     12 O           4.7693    3.1501    0.0000 O.2     1  UNL1       -0.2511
     13 C           5.1755   -1.0122    0.0000 C.3     1  UNL1        0.0604
     14 C           5.3274   -2.0427    0.0000 C.3     1  UNL1        0.1697
     15 C           4.2517   -0.6295    0.0000 C.3     1  UNL1        0.0919
     16 C           4.5059   -2.6832    0.0000 C.3     1  UNL1        0.1035
     17 C           6.0994   -0.6295    0.0000 C.3     1  UNL1        0.1404
     18 C           6.4821    0.2944    0.0000 C.3     1  UNL1        0.1147
     19 C           3.4156   -1.2508    0.0000 C.3     1  UNL1        0.0728
     20 C           3.5436   -2.2846    0.0000 C.3     1  UNL1        0.0044
     21 C           6.0994    1.2182    0.0000 C.3     1  UNL1        0.0226
     22 C           5.9766   -2.8683    0.0000 C.3     1  UNL1        0.0909
     23 C           3.8690    0.2944    0.0000 C.2     1  UNL1        0.1890
     24 C           7.1552    1.0361    0.0000 C.3     1  UNL1        0.0103
     25 C           5.1755    1.6009    0.0000 C.2     1  UNL1       -0.0124
     26 C           3.2602   -0.7600    0.0000 C.3     1  UNL1        0.0596
     27 C           4.2517    1.2182    0.0000 C.3     1  UNL1        0.1832
     28 C           6.8804    1.9992    0.0000 C.3     1  UNL1        0.0791
     29 C           5.9172    2.2740    0.0000 C.2     1  UNL1       -0.0407
     30 C           6.3971    2.3290    0.0000 C.3     1  UNL1       -0.0532
     31 C           7.2102    1.5159    0.0000 C.3     1  UNL1       -0.0532
     32 C           5.6897    3.2478    0.0000 C.3     1  UNL1       -0.0410
     33 C           6.6259   -2.8559    0.0000 C.2     1  UNL1        0.3046
     34 C           8.0019   -0.9651    0.0000 C.2     1  UNL1        0.3395
     35 C           5.9560   -3.5984    0.0000 C.3     1  UNL1        0.0333
     36 C           3.8034    2.8913    0.0000 C.2     1  UNL1        0.3049
     37 C           8.5755   -1.7841    0.0000 C.ar    1  UNL1        0.0590
     38 C           3.0963    3.5984    0.0000 C.3     1  UNL1        0.0333
     39 C           9.5717   -1.6969    0.0000 C.ar    1  UNL1       -0.0478
     40 C           8.1530   -2.6905    0.0000 C.ar    1  UNL1       -0.0478
     41 C          10.1453   -2.5160    0.0000 C.ar    1  UNL1       -0.0610
     42 C           8.7266   -3.5096    0.0000 C.ar    1  UNL1       -0.0610
     43 C           9.7228   -3.4224    0.0000 C.ar    1  UNL1       -0.0617
     44 H           5.9608   -1.3375    0.0000 H       1  UNL1        0.0389
     45 H           3.9897   -3.3584    0.0000 H       1  UNL1        0.0638
     46 H           6.6773   -0.4048    0.0000 H       1  UNL1        0.0768
     47 H           2.9201   -1.6235    0.0000 H       1  UNL1        0.0605
     48 H           2.9243   -2.2543    0.0000 H       1  UNL1        0.0317
     49 H           3.4078   -2.8895    0.0000 H       1  UNL1        0.0317
     50 H           6.3585   -3.3568    0.0000 H       1  UNL1        0.0601
     51 H           6.4645   -2.4858    0.0000 H       1  UNL1        0.0601
     52 H           7.5297    0.5419    0.0000 H       1  UNL1        0.0323
     53 H           7.7099    1.3131    0.0000 H       1  UNL1        0.0323
     54 H           2.7103   -1.0463    0.0000 H       1  UNL1        0.0568
     55 H           3.4467   -1.3514    0.0000 H       1  UNL1        0.0568
     56 H           4.3726    1.8263    0.0000 H       1  UNL1        0.0864
     57 H           6.7248    2.5994    0.0000 H       1  UNL1        0.0641
     58 H           6.9959    2.1686    0.0000 H       1  UNL1        0.0239
     59 H           6.5575    2.9279    0.0000 H       1  UNL1        0.0239
     60 H           5.7982    2.4895    0.0000 H       1  UNL1        0.0239
     61 H           7.3707    0.9170    0.0000 H       1  UNL1        0.0239
     62 H           7.8091    1.6764    0.0000 H       1  UNL1        0.0239
     63 H           7.0498    2.1148    0.0000 H       1  UNL1        0.0239
     64 H           7.7921    0.8313    0.0000 H       1  UNL1        0.2104
     65 H           2.0000   -1.2292    0.0000 H       1  UNL1        0.2098
     66 H           2.0368   -0.0476    0.0000 H       1  UNL1        0.2094
     67 H           6.2935    3.3889    0.0000 H       1  UNL1        0.0275
     68 H           5.5487    3.8516    0.0000 H       1  UNL1        0.0275
     69 H           5.0860    3.1068    0.0000 H       1  UNL1        0.0275
     70 H           7.4270    3.3052    0.0000 H       1  UNL1        0.2102
     71 H           5.4957   -3.1830    0.0000 H       1  UNL1        0.0342
     72 H           5.5406   -4.0587    0.0000 H       1  UNL1        0.0342
     73 H           6.4163   -4.0137    0.0000 H       1  UNL1        0.0342
     74 H           3.5347    4.0368    0.0000 H       1  UNL1        0.0342
     75 H           2.6579    4.0368    0.0000 H       1  UNL1        0.0342
     76 H           2.6579    3.1600    0.0000 H       1  UNL1        0.0342
     77 H           9.8337   -1.1350    0.0000 H       1  UNL1        0.0626
     78 H           7.5353   -2.7446    0.0000 H       1  UNL1        0.0626
     79 H          10.7630   -2.4619    0.0000 H       1  UNL1        0.0618
     80 H           8.4646   -4.0715    0.0000 H       1  UNL1        0.0618
     81 H          10.0784   -3.9302    0.0000 H       1  UNL1        0.0618
@<TRIPOS>BOND
     1     1    16    1
     2     1    22    1
     3    14     2    1
     4     2    33    1
     5    17     3    1
     6     3    34    1
     7    18     4    1
     8     4    64    1
     9    19     5    1
    10     5    65    1
    11     6    26    1
    12     6    66    1
    13    27     7    1
    14     7    36    1
    15     8    23    2
    16    28     9    1
    17     9    70    1
    18    10    33    2
    19    11    34    2
    20    12    36    2
    21    13    14    1
    22    13    15    1
    23    13    17    1
    24    13    44    1
    25    14    16    1
    26    14    22    1
    27    15    19    1
    28    15    23    1
    29    15    26    1
    30    16    20    1
    31    16    45    1
    32    17    18    1
    33    17    46    1
    34    18    21    1
    35    18    24    1
    36    19    20    1
    37    19    47    1
    38    20    48    1
    39    20    49    1
    40    21    25    1
    41    21    30    1
    42    21    31    1
    43    22    50    1
    44    22    51    1
    45    23    27    1
    46    24    28    1
    47    24    52    1
    48    24    53    1
    49    25    27    1
    50    25    29    2
    51    26    54    1
    52    26    55    1
    53    27    56    1
    54    28    29    1
    55    28    57    1
    56    29    32    1
    57    30    58    1
    58    30    59    1
    59    30    60    1
    60    31    61    1
    61    31    62    1
    62    31    63    1
    63    32    67    1
    64    32    68    1
    65    32    69    1
    66    33    35    1
    67    34    37    1
    68    35    71    1
    69    35    72    1
    70    35    73    1
    71    36    38    1
    72    37    39   ar
    73    37    40   ar
    74    38    74    1
    75    38    75    1
    76    38    76    1
    77    39    41   ar
    78    39    77    1
    79    40    42   ar
    80    40    78    1
    81    41    43   ar
    82    41    79    1
    83    42    43   ar
    84    42    80    1
    85    43    81    1
