@<TRIPOS>MOLECULE
IMPHY016865
 40 40 0 0 0
SMALL
GASTEIGER

@<TRIPOS>ATOM
      1 O           2.5369    0.0000    0.0000 O.3     1  UNL1       -0.3921
      2 C           6.0010   -0.0000    0.0000 C.3     1  UNL1       -0.0332
      3 C           6.8671    0.5000    0.0000 C.3     1  UNL1       -0.0318
      4 C           6.0010   -1.0000    0.0000 C.3     1  UNL1       -0.0406
      5 C           7.7331   -0.0000    0.0000 C.3     1  UNL1       -0.0476
      6 C           6.8671   -1.5000    0.0000 C.3     1  UNL1       -0.0502
      7 C           7.7331   -1.0000    0.0000 C.3     1  UNL1       -0.0523
      8 C           5.1350    0.5000    0.0000 C.3     1  UNL1       -0.0472
      9 C           7.3671    1.3660    0.0000 C.3     1  UNL1       -0.0596
     10 C           6.3671    1.3660    0.0000 C.3     1  UNL1       -0.0596
     11 C           5.1350   -1.5000    0.0000 C.3     1  UNL1       -0.0621
     12 C           4.2690    0.0000    0.0000 C.3     1  UNL1       -0.0268
     13 C           3.4030    0.5000    0.0000 C.3     1  UNL1        0.0525
     14 C           3.4030    1.5000    0.0000 C.3     1  UNL1       -0.0389
     15 H           5.4641   -0.3100    0.0000 H       1  UNL1        0.0309
     16 H           6.5380   -0.6900    0.0000 H       1  UNL1        0.0301
     17 H           8.3437   -0.1077    0.0000 H       1  UNL1        0.0271
     18 H           7.9451    0.5826    0.0000 H       1  UNL1        0.0271
     19 H           6.4685   -1.9750    0.0000 H       1  UNL1        0.0268
     20 H           7.2656   -1.9750    0.0000 H       1  UNL1        0.0268
     21 H           7.9451   -1.5826    0.0000 H       1  UNL1        0.0266
     22 H           8.3437   -0.8923    0.0000 H       1  UNL1        0.0266
     23 H           5.5335    0.9749    0.0000 H       1  UNL1        0.0269
     24 H           4.7365    0.9749    0.0000 H       1  UNL1        0.0269
     25 H           7.9040    1.0560    0.0000 H       1  UNL1        0.0235
     26 H           7.6771    1.9030    0.0000 H       1  UNL1        0.0235
     27 H           6.8301    1.6760    0.0000 H       1  UNL1        0.0235
     28 H           6.9040    1.6760    0.0000 H       1  UNL1        0.0235
     29 H           6.0571    1.9030    0.0000 H       1  UNL1        0.0235
     30 H           5.8301    1.0560    0.0000 H       1  UNL1        0.0235
     31 H           4.8250   -0.9631    0.0000 H       1  UNL1        0.0233
     32 H           4.5981   -1.8100    0.0000 H       1  UNL1        0.0233
     33 H           5.4450   -2.0369    0.0000 H       1  UNL1        0.0233
     34 H           3.8705   -0.4749    0.0000 H       1  UNL1        0.0290
     35 H           4.6675   -0.4749    0.0000 H       1  UNL1        0.0290
     36 H           3.4030   -0.1200    0.0000 H       1  UNL1        0.0590
     37 H           4.0230    1.5000    0.0000 H       1  UNL1        0.0254
     38 H           3.4030    2.1200    0.0000 H       1  UNL1        0.0254
     39 H           2.7830    1.5000    0.0000 H       1  UNL1        0.0254
     40 H           2.0000    0.3100    0.0000 H       1  UNL1        0.2098
@<TRIPOS>BOND
     1     1    13    1
     2     1    40    1
     3     2     3    1
     4     2     4    1
     5     2     8    1
     6     2    15    1
     7     3     5    1
     8     3     9    1
     9     3    10    1
    10     4     6    1
    11     4    11    1
    12     4    16    1
    13     5     7    1
    14     5    17    1
    15     5    18    1
    16     6     7    1
    17     6    19    1
    18     6    20    1
    19     7    21    1
    20     7    22    1
    21     8    12    1
    22     8    23    1
    23     8    24    1
    24     9    25    1
    25     9    26    1
    26     9    27    1
    27    10    28    1
    28    10    29    1
    29    10    30    1
    30    11    31    1
    31    11    32    1
    32    11    33    1
    33    12    13    1
    34    12    34    1
    35    12    35    1
    36    13    14    1
    37    13    36    1
    38    14    37    1
    39    14    38    1
    40    14    39    1
