@<TRIPOS>MOLECULE
IMPHY008451
 39 41 0 0 0
SMALL
GASTEIGER

@<TRIPOS>ATOM
      1 C           4.7266    0.2846    0.0000 C.3     1  UNL1       -0.0023
      2 C           2.9945    1.2846    0.0000 C.3     1  UNL1       -0.0313
      3 C           2.9945    0.2846    0.0000 C.3     1  UNL1       -0.0105
      4 C           3.6775    0.4676    0.0000 C.3     1  UNL1       -0.0395
      5 C           5.6366   -0.2222    0.0000 C.3     1  UNL1       -0.0253
      6 C           3.8606   -0.2154    0.0000 C.2     1  UNL1       -0.0609
      7 C           4.7266    1.2846    0.0000 C.3     1  UNL1       -0.0429
      8 C           3.8606    1.7846    0.0000 C.3     1  UNL1       -0.0486
      9 C           5.6446   -1.2638    0.0000 C.3     1  UNL1       -0.0436
     10 C           3.8445   -1.2569    0.0000 C.2     1  UNL1       -0.0837
     11 C           2.0000    0.3892    0.0000 C.3     1  UNL1       -0.0558
     12 C           2.5878   -0.6289    0.0000 C.3     1  UNL1       -0.0558
     13 C           4.7425   -1.7846    0.0000 C.3     1  UNL1       -0.0340
     14 C           6.6365   -0.2107    0.0000 C.3     1  UNL1       -0.0590
     15 C           6.1265    0.6495    0.0000 C.3     1  UNL1       -0.0590
     16 H           2.2584    1.7096    0.0000 H       1  UNL1        0.0309
     17 H           3.1081    0.2224    0.0000 H       1  UNL1        0.0277
     18 H           3.7499   -0.1481    0.0000 H       1  UNL1        0.0277
     19 H           5.3372    1.1770    0.0000 H       1  UNL1        0.0274
     20 H           4.9386    1.8672    0.0000 H       1  UNL1        0.0274
     21 H           4.2591    2.2596    0.0000 H       1  UNL1        0.0268
     22 H           3.4620    2.2596    0.0000 H       1  UNL1        0.0268
     23 H           5.8582   -1.8459    0.0000 H       1  UNL1        0.0274
     24 H           6.2546   -1.1530    0.0000 H       1  UNL1        0.0274
     25 H           3.3040   -1.5607    0.0000 H       1  UNL1        0.0572
     26 H           2.0648    1.0058    0.0000 H       1  UNL1        0.0238
     27 H           1.3834    0.4540    0.0000 H       1  UNL1        0.0238
     28 H           1.9352   -0.2274    0.0000 H       1  UNL1        0.0238
     29 H           2.0214   -0.3767    0.0000 H       1  UNL1        0.0238
     30 H           2.3356   -1.1953    0.0000 H       1  UNL1        0.0238
     31 H           3.1542   -0.8811    0.0000 H       1  UNL1        0.0238
     32 H           4.3416   -2.2575    0.0000 H       1  UNL1        0.0308
     33 H           5.1398   -2.2606    0.0000 H       1  UNL1        0.0308
     34 H           6.6437   -0.8306    0.0000 H       1  UNL1        0.0235
     35 H           7.2565   -0.2035    0.0000 H       1  UNL1        0.0235
     36 H           6.6293    0.4093    0.0000 H       1  UNL1        0.0235
     37 H           6.6670    0.3458    0.0000 H       1  UNL1        0.0235
     38 H           6.4303    1.1900    0.0000 H       1  UNL1        0.0235
     39 H           5.5860    0.9533    0.0000 H       1  UNL1        0.0235
@<TRIPOS>BOND
     1     1     4    1
     2     1     5    1
     3     1     6    1
     4     1     7    1
     5     2     3    1
     6     2     4    1
     7     2     8    1
     8     2    16    1
     9     3     6    1
    10     3    11    1
    11     3    12    1
    12     4    17    1
    13     4    18    1
    14     5     9    1
    15     5    14    1
    16     5    15    1
    17     6    10    2
    18     7     8    1
    19     7    19    1
    20     7    20    1
    21     8    21    1
    22     8    22    1
    23     9    13    1
    24     9    23    1
    25     9    24    1
    26    10    13    1
    27    10    25    1
    28    11    26    1
    29    11    27    1
    30    11    28    1
    31    12    29    1
    32    12    30    1
    33    12    31    1
    34    13    32    1
    35    13    33    1
    36    14    34    1
    37    14    35    1
    38    14    36    1
    39    15    37    1
    40    15    38    1
    41    15    39    1
