@<TRIPOS>MOLECULE
IMPHY005609
 38 37 0 0 0
SMALL
GASTEIGER

@<TRIPOS>ATOM
      1 O          12.3923   -0.0600    0.0000 O.2     1  UNL1       -0.2961
      2 C           8.0622    0.4400    0.0000 C.3     1  UNL1       -0.0286
      3 C           7.1962   -0.0600    0.0000 C.2     1  UNL1       -0.0762
      4 C           8.9282   -0.0600    0.0000 C.3     1  UNL1       -0.0304
      5 C           5.4641   -0.0600    0.0000 C.3     1  UNL1       -0.0305
      6 C           6.3301    0.4400    0.0000 C.2     1  UNL1       -0.0847
      7 C           4.5981    0.4400    0.0000 C.3     1  UNL1       -0.0248
      8 C           7.1962   -1.0600    0.0000 C.3     1  UNL1       -0.0438
      9 C           9.7942    0.4400    0.0000 C.2     1  UNL1       -0.0778
     10 C           3.7320   -0.0600    0.0000 C.2     1  UNL1       -0.0547
     11 C          10.6603   -0.0600    0.0000 C.2     1  UNL1       -0.0152
     12 C           2.8660    0.4400    0.0000 C.2     1  UNL1       -0.0662
     13 C          10.6603   -1.0600    0.0000 C.3     1  UNL1       -0.0370
     14 C           3.7320   -1.0600    0.0000 C.2     1  UNL1       -0.0955
     15 C          11.5263    0.4400    0.0000 C.2     1  UNL1        0.1457
     16 C           2.0000   -0.0600    0.0000 C.2     1  UNL1       -0.0985
     17 H           8.4607    0.9149    0.0000 H       1  UNL1        0.0313
     18 H           7.6636    0.9149    0.0000 H       1  UNL1        0.0313
     19 H           8.5297   -0.5349    0.0000 H       1  UNL1        0.0311
     20 H           9.3267   -0.5349    0.0000 H       1  UNL1        0.0311
     21 H           5.0656   -0.5349    0.0000 H       1  UNL1        0.0311
     22 H           5.8626   -0.5349    0.0000 H       1  UNL1        0.0311
     23 H           6.3301    1.0600    0.0000 H       1  UNL1        0.0572
     24 H           4.9966    0.9149    0.0000 H       1  UNL1        0.0316
     25 H           4.1996    0.9149    0.0000 H       1  UNL1        0.0316
     26 H           6.5762   -1.0600    0.0000 H       1  UNL1        0.0274
     27 H           7.1962   -1.6800    0.0000 H       1  UNL1        0.0274
     28 H           7.8162   -1.0600    0.0000 H       1  UNL1        0.0274
     29 H           9.7942    1.0600    0.0000 H       1  UNL1        0.0576
     30 H          10.0403   -1.0600    0.0000 H       1  UNL1        0.0278
     31 H          10.6603   -1.6800    0.0000 H       1  UNL1        0.0278
     32 H          11.2803   -1.0600    0.0000 H       1  UNL1        0.0278
     33 H           2.8660    1.0600    0.0000 H       1  UNL1        0.0614
     34 H           3.1951   -1.3700    0.0000 H       1  UNL1        0.0537
     35 H           4.2690   -1.3700    0.0000 H       1  UNL1        0.0537
     36 H          11.5263    1.0600    0.0000 H       1  UNL1        0.1078
     37 H           1.4631    0.2500    0.0000 H       1  UNL1        0.0535
     38 H           2.0000   -0.6800    0.0000 H       1  UNL1        0.0535
@<TRIPOS>BOND
     1     1    15    2
     2     2     3    1
     3     2     4    1
     4     2    17    1
     5     2    18    1
     6     3     6    2
     7     3     8    1
     8     4     9    1
     9     4    19    1
    10     4    20    1
    11     5     6    1
    12     5     7    1
    13     5    21    1
    14     5    22    1
    15     6    23    1
    16     7    10    1
    17     7    24    1
    18     7    25    1
    19     8    26    1
    20     8    27    1
    21     8    28    1
    22     9    11    2
    23     9    29    1
    24    10    12    1
    25    10    14    2
    26    11    13    1
    27    11    15    1
    28    12    16    2
    29    12    33    1
    30    13    30    1
    31    13    31    1
    32    13    32    1
    33    14    34    1
    34    14    35    1
    35    15    36    1
    36    16    37    1
    37    16    38    1
