@<TRIPOS>MOLECULE
IMPHY004805
 33 35 0 0 0
SMALL
GASTEIGER

@<TRIPOS>ATOM
      1 O           5.5443   -1.0392    0.0000 O.2     1  UNL1       -0.4536
      2 O           6.1279   -2.2344    0.0000 O.3     1  UNL1       -0.5058
      3 O           7.8600    0.7656    0.0000 O.3     1  UNL1       -0.5058
      4 O           2.0000    0.7656    0.0000 O.3     1  UNL1       -0.5033
      5 O           2.0000   -1.2344    0.0000 O.3     1  UNL1       -0.5032
      6 O           5.1871    2.2651    0.0000 O.3     1  UNL1       -0.4770
      7 O           6.8335    1.7270    0.0000 O.2     1  UNL1       -0.2450
      8 O           9.5920   -2.2344    0.0000 O.3     1  UNL1       -0.5065
      9 C           4.5981    0.2656    0.0000 C.ar    1  UNL1        0.0385
     10 C           6.1279   -0.2344    0.0000 C.ar    1  UNL1        0.1572
     11 C           5.5443    0.5703    0.0000 C.ar    1  UNL1        0.1125
     12 C           4.5981   -0.7344    0.0000 C.ar    1  UNL1        0.1402
     13 C           6.9939   -0.7344    0.0000 C.ar    1  UNL1        0.1010
     14 C           3.7320    0.7656    0.0000 C.ar    1  UNL1       -0.0050
     15 C           3.7320   -1.2344    0.0000 C.ar    1  UNL1        0.0264
     16 C           6.9939   -1.7344    0.0000 C.ar    1  UNL1        0.1345
     17 C           7.8600   -0.2344    0.0000 C.ar    1  UNL1        0.1345
     18 C           2.8660    0.2656    0.0000 C.ar    1  UNL1        0.1590
     19 C           2.8660   -0.7344    0.0000 C.ar    1  UNL1        0.1618
     20 C           5.8550    1.5208    0.0000 C.2     1  UNL1        0.3411
     21 C           7.8600   -2.2344    0.0000 C.ar    1  UNL1        0.0222
     22 C           8.7260   -0.7344    0.0000 C.ar    1  UNL1        0.0222
     23 C           8.7260   -1.7344    0.0000 C.ar    1  UNL1        0.1238
     24 H           3.7320    1.3856    0.0000 H       1  UNL1        0.0662
     25 H           3.7320   -1.8544    0.0000 H       1  UNL1        0.0692
     26 H           7.8600   -2.8544    0.0000 H       1  UNL1        0.0691
     27 H           9.2629   -0.4244    0.0000 H       1  UNL1        0.0691
     28 H           6.1279   -2.8544    0.0000 H       1  UNL1        0.2922
     29 H           8.3969    1.0756    0.0000 H       1  UNL1        0.2922
     30 H           2.0000    1.3856    0.0000 H       1  UNL1        0.2923
     31 H           2.0000   -1.8544    0.0000 H       1  UNL1        0.2923
     32 H           5.3797    2.8544    0.0000 H       1  UNL1        0.2954
     33 H           9.5920   -2.8544    0.0000 H       1  UNL1        0.2921
@<TRIPOS>BOND
     1     1    10   ar
     2     1    12   ar
     3     2    16    1
     4     2    28    1
     5     3    17    1
     6     3    29    1
     7     4    18    1
     8     4    30    1
     9     5    19    1
    10     5    31    1
    11     6    20    1
    12     6    32    1
    13     7    20    2
    14     8    23    1
    15     8    33    1
    16     9    11   ar
    17     9    12   ar
    18     9    14   ar
    19    10    11   ar
    20    10    13    1
    21    11    20    1
    22    12    15   ar
    23    13    16   ar
    24    13    17   ar
    25    14    18   ar
    26    14    24    1
    27    15    19   ar
    28    15    25    1
    29    16    21   ar
    30    17    22   ar
    31    18    19   ar
    32    21    23   ar
    33    21    26    1
    34    22    23   ar
    35    22    27    1
