@<TRIPOS>MOLECULE
IMPHY006127
 53 56 0 0 0
SMALL
GASTEIGER

@<TRIPOS>ATOM
      1 O           5.1350   -0.5406    0.0000 O.3     1  UNL1       -0.3221
      2 O           6.8671   -0.5406    0.0000 O.3     1  UNL1       -0.4534
      3 O           5.1350   -3.5406    0.0000 O.3     1  UNL1       -0.3863
      4 O           6.8671   -2.5406    0.0000 O.3     1  UNL1       -0.3829
      5 O           3.4030   -2.5406    0.0000 O.3     1  UNL1       -0.3860
      6 O           2.5369   -1.0406    0.0000 O.3     1  UNL1       -0.4788
      7 O           8.6273    0.4737    0.0000 O.2     1  UNL1       -0.4470
      8 O           3.4030    0.4594    0.0000 O.2     1  UNL1       -0.2480
      9 O           5.0971    0.4904    0.0000 O.3     1  UNL1       -0.5031
     10 O           6.9141    3.5283    0.0000 O.3     1  UNL1       -0.5058
     11 O          10.3824    2.4535    0.0000 O.3     1  UNL1       -0.5007
     12 O           8.6620    3.4735    0.0000 O.2     1  UNL1       -0.2830
     13 O          11.1963   -2.0562    0.0000 O.3     1  UNL1       -0.5033
     14 O          12.9398   -1.0763    0.0000 O.3     1  UNL1       -0.5033
     15 C           5.1350   -2.5406    0.0000 C.3     1  UNL1        0.1157
     16 C           6.0010   -2.0406    0.0000 C.3     1  UNL1        0.1455
     17 C           4.2690   -2.0406    0.0000 C.3     1  UNL1        0.1202
     18 C           6.0010   -1.0406    0.0000 C.3     1  UNL1        0.2316
     19 C           4.2690   -1.0406    0.0000 C.3     1  UNL1        0.1869
     20 C           3.4030   -0.5406    0.0000 C.2     1  UNL1        0.3367
     21 C           6.8671    0.4594    0.0000 C.ar    1  UNL1        0.2080
     22 C           7.7671    0.9837    0.0000 C.ar    1  UNL1        0.1882
     23 C           7.7787    1.9836    0.0000 C.ar    1  UNL1        0.1128
     24 C           5.9670    0.9837    0.0000 C.ar    1  UNL1        0.1658
     25 C           6.8910    2.5286    0.0000 C.ar    1  UNL1        0.1350
     26 C           5.9790    2.0252    0.0000 C.ar    1  UNL1        0.0259
     27 C           8.6504    2.4736    0.0000 C.ar    1  UNL1        0.2380
     28 C           9.4991    0.9636    0.0000 C.ar    1  UNL1        0.1809
     29 C           9.5106    1.9636    0.0000 C.ar    1  UNL1        0.2082
     30 C          10.3592    0.4537    0.0000 C.ar    1  UNL1        0.0247
     31 C          10.3477   -0.5463    0.0000 C.ar    1  UNL1       -0.0057
     32 C          11.2310    0.9436    0.0000 C.ar    1  UNL1       -0.0473
     33 C          11.2079   -1.0563    0.0000 C.ar    1  UNL1        0.1589
     34 C          12.0912    0.4336    0.0000 C.ar    1  UNL1       -0.0159
     35 C          12.0796   -0.5663    0.0000 C.ar    1  UNL1        0.1583
     36 H           5.6720   -2.8506    0.0000 H       1  UNL1        0.0648
     37 H           6.5380   -1.7306    0.0000 H       1  UNL1        0.0683
     38 H           4.2690   -2.6606    0.0000 H       1  UNL1        0.0652
     39 H           6.0010   -0.4206    0.0000 H       1  UNL1        0.1084
     40 H           4.2690   -0.4206    0.0000 H       1  UNL1        0.0742
     41 H           5.6720   -3.8506    0.0000 H       1  UNL1        0.2100
     42 H           7.4040   -2.2306    0.0000 H       1  UNL1        0.2102
     43 H           3.4030   -3.1606    0.0000 H       1  UNL1        0.2100
     44 H           5.4470    2.3435    0.0000 H       1  UNL1        0.0692
     45 H           2.0000   -0.7306    0.0000 H       1  UNL1        0.2951
     46 H           4.5626    0.8045    0.0000 H       1  UNL1        0.2923
     47 H           9.8072   -0.8500    0.0000 H       1  UNL1        0.0662
     48 H          11.2382    1.5636    0.0000 H       1  UNL1        0.0626
     49 H           6.3845    3.8506    0.0000 H       1  UNL1        0.2922
     50 H          10.3895    3.0735    0.0000 H       1  UNL1        0.2924
     51 H          12.6317    0.7374    0.0000 H       1  UNL1        0.0655
     52 H          11.7296   -2.3724    0.0000 H       1  UNL1        0.2923
     53 H          13.4803   -0.7725    0.0000 H       1  UNL1        0.2923
@<TRIPOS>BOND
     1     1    18    1
     2     1    19    1
     3    18     2    1
     4     2    21    1
     5    15     3    1
     6     3    41    1
     7    16     4    1
     8     4    42    1
     9    17     5    1
    10     5    43    1
    11     6    20    1
    12     6    45    1
    13     7    22   ar
    14     7    28   ar
    15     8    20    2
    16     9    24    1
    17     9    46    1
    18    10    25    1
    19    10    49    1
    20    11    29    1
    21    11    50    1
    22    12    27    2
    23    13    33    1
    24    13    52    1
    25    14    35    1
    26    14    53    1
    27    15    16    1
    28    15    17    1
    29    15    36    1
    30    16    18    1
    31    16    37    1
    32    17    19    1
    33    17    38    1
    34    18    39    1
    35    19    20    1
    36    19    40    1
    37    21    22   ar
    38    21    24   ar
    39    22    23   ar
    40    23    25   ar
    41    23    27   ar
    42    24    26   ar
    43    25    26   ar
    44    26    44    1
    45    27    29   ar
    46    28    29   ar
    47    28    30    1
    48    30    31   ar
    49    30    32   ar
    50    31    33   ar
    51    31    47    1
    52    32    34   ar
    53    32    48    1
    54    33    35   ar
    55    34    35   ar
    56    34    51    1
