@<TRIPOS>MOLECULE
IMPHY004476
 23 22 0 0 0
SMALL
GASTEIGER

@<TRIPOS>ATOM
      1 O           2.8660   -0.5600    0.0000 O.3     1  UNL1       -0.4648
      2 O           3.7320   -2.0600    0.0000 O.2     1  UNL1       -0.2456
      3 C          11.5263    1.4400    0.0000 C.3     1  UNL1       -0.0459
      4 C           4.5981   -0.5600    0.0000 C.2     1  UNL1        0.0307
      5 C           3.7320   -1.0600    0.0000 C.2     1  UNL1        0.3323
      6 C          10.6603    0.9400    0.0000 C.2     1  UNL1       -0.0789
      7 C           2.0000   -1.0600    0.0000 C.3     1  UNL1        0.0820
      8 C           5.4641   -1.0600    0.0000 C.2     1  UNL1       -0.0039
      9 C           9.7942    1.4400    0.0000 C.2     1  UNL1       -0.0148
     10 C           6.3301   -0.5600    0.0000 C.1     1  UNL1       -0.0600
     11 C           8.9282    0.9400    0.0000 C.1     1  UNL1       -0.0606
     12 C           7.1962   -0.0600    0.0000 C.1     1  UNL1       -0.0098
     13 C           8.0622    0.4400    0.0000 C.1     1  UNL1       -0.0098
     14 H           4.5981    0.0600    0.0000 H       1  UNL1        0.0695
     15 H          11.8363    0.9031    0.0000 H       1  UNL1        0.0272
     16 H          12.0632    1.7500    0.0000 H       1  UNL1        0.0272
     17 H          11.2163    1.9769    0.0000 H       1  UNL1        0.0272
     18 H          10.6603    0.3200    0.0000 H       1  UNL1        0.0575
     19 H           1.6900   -0.5231    0.0000 H       1  UNL1        0.0661
     20 H           1.4631   -1.3700    0.0000 H       1  UNL1        0.0661
     21 H           2.3100   -1.5969    0.0000 H       1  UNL1        0.0661
     22 H           5.4641   -1.6800    0.0000 H       1  UNL1        0.0714
     23 H           9.7942    2.0600    0.0000 H       1  UNL1        0.0709
@<TRIPOS>BOND
     1     1     5    1
     2     1     7    1
     3     2     5    2
     4     3     6    1
     5     3    15    1
     6     3    16    1
     7     3    17    1
     8     4     5    1
     9     4     8    2
    10     4    14    1
    11     6     9    2
    12     6    18    1
    13     7    19    1
    14     7    20    1
    15     7    21    1
    16     8    10    1
    17     8    22    1
    18     9    11    1
    19     9    23    1
    20    10    12    3
    21    11    13    3
    22    12    13    1
