@<TRIPOS>MOLECULE
IMPHY003184
 37 41 0 0 0
SMALL
GASTEIGER

@<TRIPOS>ATOM
      1 O           4.3798   -0.7829    0.0000 O.2     1  UNL1       -0.4502
      2 O           2.5836   -3.6291    0.0000 O.2     1  UNL1       -0.4628
      3 O           6.8686    2.9181    0.0000 O.3     1  UNL1       -0.4526
      4 O           5.4717    3.7175    0.0000 O.3     1  UNL1       -0.4526
      5 O           7.0479   -0.2793    0.0000 O.3     1  UNL1       -0.4883
      6 O           7.0321   -2.3275    0.0000 O.2     1  UNL1       -0.2831
      7 C           4.3958   -1.8244    0.0000 C.ar    1  UNL1        0.1503
      8 C           5.2619   -2.3244    0.0000 C.ar    1  UNL1        0.0685
      9 C           3.5298   -2.3244    0.0000 C.ar    1  UNL1        0.0630
     10 C           5.2778   -0.2551    0.0000 C.ar    1  UNL1        0.1810
     11 C           5.2740    0.7449    0.0000 C.ar    1  UNL1        0.0247
     12 C           6.1799   -0.7759    0.0000 C.ar    1  UNL1        0.2105
     13 C           3.5298   -3.3244    0.0000 C.ar    1  UNL1        0.1383
     14 C           6.1719   -1.8175    0.0000 C.ar    1  UNL1        0.2346
     15 C           5.2619   -3.3244    0.0000 C.ar    1  UNL1       -0.0438
     16 C           6.1381    1.2482    0.0000 C.ar    1  UNL1       -0.0054
     17 C           6.1342    2.2482    0.0000 C.ar    1  UNL1        0.1669
     18 C           4.3958   -3.8244    0.0000 C.ar    1  UNL1       -0.0179
     19 C           5.2663    2.7449    0.0000 C.ar    1  UNL1        0.1663
     20 C           4.4060    1.2416    0.0000 C.ar    1  UNL1       -0.0473
     21 C           2.5836   -2.0196    0.0000 C.ar    1  UNL1       -0.0126
     22 C           4.4022    2.2415    0.0000 C.ar    1  UNL1       -0.0155
     23 C           2.0000   -2.8244    0.0000 C.ar    1  UNL1        0.0932
     24 C           6.4600    3.8244    0.0000 C.3     1  UNL1        0.2332
     25 C           7.9120   -0.7826    0.0000 C.3     1  UNL1        0.0791
     26 H           5.7988   -3.6344    0.0000 H       1  UNL1        0.0627
     27 H           6.6762    0.9403    0.0000 H       1  UNL1        0.0662
     28 H           4.3958   -4.4444    0.0000 H       1  UNL1        0.0655
     29 H           3.8703    0.9295    0.0000 H       1  UNL1        0.0626
     30 H           2.3910   -1.4303    0.0000 H       1  UNL1        0.0656
     31 H           3.8640    2.5495    0.0000 H       1  UNL1        0.0655
     32 H           1.3800   -2.8244    0.0000 H       1  UNL1        0.1030
     33 H           7.0489    4.0184    0.0000 H       1  UNL1        0.1166
     34 H           6.3290    4.4304    0.0000 H       1  UNL1        0.1166
     35 H           7.5999   -1.3183    0.0000 H       1  UNL1        0.0660
     36 H           8.4477   -1.0947    0.0000 H       1  UNL1        0.0660
     37 H           8.2240   -0.2469    0.0000 H       1  UNL1        0.0660
@<TRIPOS>BOND
     1     1     7   ar
     2     1    10   ar
     3     2    13   ar
     4     2    23   ar
     5     3    17    1
     6     3    24    1
     7     4    19    1
     8     4    24    1
     9     5    12    1
    10     5    25    1
    11     6    14    2
    12     7     8   ar
    13     7     9   ar
    14     8    14   ar
    15     8    15   ar
    16     9    13   ar
    17     9    21   ar
    18    10    11    1
    19    10    12   ar
    20    11    16   ar
    21    11    20   ar
    22    12    14   ar
    23    13    18   ar
    24    15    18   ar
    25    15    26    1
    26    16    17   ar
    27    16    27    1
    28    17    19   ar
    29    18    28    1
    30    19    22   ar
    31    20    22   ar
    32    20    29    1
    33    21    23   ar
    34    21    30    1
    35    22    31    1
    36    23    32    1
    37    24    33    1
    38    24    34    1
    39    25    35    1
    40    25    36    1
    41    25    37    1
