@<TRIPOS>MOLECULE
IMPHY005320
 44 47 0 0 0
SMALL
GASTEIGER

@<TRIPOS>ATOM
      1 O          10.4786    1.2621    0.0000 O.3     1  UNL1       -0.4838
      2 O           6.0682   -2.0427    0.0000 O.3     1  UNL1       -0.4910
      3 O           6.9343    1.4573    0.0000 O.3     1  UNL1       -0.5064
      4 O           2.5381   -2.0668    0.0000 O.3     1  UNL1       -0.5066
      5 C           6.9343   -0.5427    0.0000 C.3     1  UNL1        0.0258
      6 C           7.8003   -0.0427    0.0000 C.ar    1  UNL1        0.0011
      7 C           6.0682   -0.0427    0.0000 C.3     1  UNL1       -0.0142
      8 C           9.5323   -0.0427    0.0000 C.ar    1  UNL1       -0.0014
      9 C           6.9343   -1.5427    0.0000 C.3     1  UNL1        0.0968
     10 C          10.4786   -0.3474    0.0000 C.3     1  UNL1        0.0169
     11 C          11.0622    0.4573    0.0000 C.3     1  UNL1        0.1248
     12 C           8.6663   -0.5427    0.0000 C.ar    1  UNL1       -0.0479
     13 C           9.5323    0.9573    0.0000 C.ar    1  UNL1        0.1282
     14 C           5.2022   -0.5427    0.0000 C.ar    1  UNL1       -0.0048
     15 C           7.8003    0.9573    0.0000 C.ar    1  UNL1        0.1239
     16 C           5.2022   -1.5427    0.0000 C.ar    1  UNL1        0.1272
     17 C           8.6663    1.4573    0.0000 C.ar    1  UNL1        0.0221
     18 C          12.0622    0.4573    0.0000 C.2     1  UNL1       -0.0395
     19 C           4.3083   -0.0080    0.0000 C.ar    1  UNL1       -0.0516
     20 C           4.3083   -2.0773    0.0000 C.ar    1  UNL1        0.0218
     21 C           3.4022   -0.5219    0.0000 C.ar    1  UNL1       -0.0197
     22 C          12.5622    1.3234    0.0000 C.3     1  UNL1       -0.0406
     23 C           3.4022   -1.5635    0.0000 C.ar    1  UNL1        0.1203
     24 C          12.5622   -0.4087    0.0000 C.2     1  UNL1       -0.0962
     25 H           6.9343    0.0773    0.0000 H       1  UNL1        0.0386
     26 H           6.4668    0.4323    0.0000 H       1  UNL1        0.0321
     27 H           5.6697    0.4323    0.0000 H       1  UNL1        0.0321
     28 H           7.1463   -2.1253    0.0000 H       1  UNL1        0.0703
     29 H           7.5449   -1.4350    0.0000 H       1  UNL1        0.0703
     30 H          10.2275   -0.9143    0.0000 H       1  UNL1        0.0353
     31 H          11.0160   -0.6566    0.0000 H       1  UNL1        0.0353
     32 H          11.3439    1.0096    0.0000 H       1  UNL1        0.0784
     33 H           8.6663   -1.1627    0.0000 H       1  UNL1        0.0625
     34 H           8.6663    2.0773    0.0000 H       1  UNL1        0.0691
     35 H           4.3154    0.6120    0.0000 H       1  UNL1        0.0623
     36 H           4.3154   -2.6973    0.0000 H       1  UNL1        0.0691
     37 H           2.8665   -0.2098    0.0000 H       1  UNL1        0.0654
     38 H          13.0991    1.0134    0.0000 H       1  UNL1        0.0275
     39 H          12.8722    1.8603    0.0000 H       1  UNL1        0.0275
     40 H          12.0252    1.6334    0.0000 H       1  UNL1        0.0275
     41 H           6.9343    2.0773    0.0000 H       1  UNL1        0.2921
     42 H          12.2522   -0.9456    0.0000 H       1  UNL1        0.0535
     43 H          13.1822   -0.4087    0.0000 H       1  UNL1        0.0535
     44 H           2.0000   -1.7589    0.0000 H       1  UNL1        0.2921
@<TRIPOS>BOND
     1     1    11    1
     2     1    13    1
     3     2     9    1
     4     2    16    1
     5     3    15    1
     6     3    41    1
     7     4    23    1
     8     4    44    1
     9     5     6    1
    10     5     7    1
    11     5     9    1
    12     5    25    1
    13     6    12   ar
    14     6    15   ar
    15     7    14    1
    16     7    26    1
    17     7    27    1
    18     8    10    1
    19     8    12   ar
    20     8    13   ar
    21     9    28    1
    22     9    29    1
    23    10    11    1
    24    10    30    1
    25    10    31    1
    26    11    18    1
    27    11    32    1
    28    12    33    1
    29    13    17   ar
    30    14    16   ar
    31    14    19   ar
    32    15    17   ar
    33    16    20   ar
    34    17    34    1
    35    18    22    1
    36    18    24    2
    37    19    21   ar
    38    19    35    1
    39    20    23   ar
    40    20    36    1
    41    21    23   ar
    42    21    37    1
    43    22    38    1
    44    22    39    1
    45    22    40    1
    46    24    42    1
    47    24    43    1
