@<TRIPOS>MOLECULE
IMPHY001211
 20 21 0 0 0
SMALL
GASTEIGER

@<TRIPOS>ATOM
      1 N           4.6660   -1.4827    0.0000 N.ar    1  UNL1       -0.2550
      2 C           3.8000    0.0173    0.0000 C.ar    1  UNL1        0.0033
      3 C           4.6660    0.5173    0.0000 C.ar    1  UNL1       -0.0399
      4 C           3.8000   -0.9827    0.0000 C.ar    1  UNL1        0.0712
      5 C           2.9061    0.5520    0.0000 C.ar    1  UNL1       -0.0523
      6 C           5.5321    0.0173    0.0000 C.ar    1  UNL1       -0.0401
      7 C           2.9061   -1.5173    0.0000 C.ar    1  UNL1       -0.0357
      8 C           4.6660    1.5173    0.0000 C.3     1  UNL1       -0.0390
      9 C           2.0000    0.0381    0.0000 C.ar    1  UNL1       -0.0611
     10 C           2.0000   -1.0035    0.0000 C.ar    1  UNL1       -0.0597
     11 C           5.5321   -0.9827    0.0000 C.ar    1  UNL1        0.0285
     12 H           2.9132    1.1720    0.0000 H       1  UNL1        0.0624
     13 H           6.0690    0.3273    0.0000 H       1  UNL1        0.0635
     14 H           2.9132   -2.1373    0.0000 H       1  UNL1        0.0639
     15 H           5.2860    1.5173    0.0000 H       1  UNL1        0.0278
     16 H           4.6660    2.1373    0.0000 H       1  UNL1        0.0278
     17 H           4.0460    1.5173    0.0000 H       1  UNL1        0.0278
     18 H           1.4643    0.3502    0.0000 H       1  UNL1        0.0618
     19 H           1.4643   -1.3156    0.0000 H       1  UNL1        0.0618
     20 H           6.0690   -1.2927    0.0000 H       1  UNL1        0.0830
@<TRIPOS>BOND
     1     1     4   ar
     2     1    11   ar
     3     2     3   ar
     4     2     4   ar
     5     2     5   ar
     6     3     6   ar
     7     3     8    1
     8     4     7   ar
     9     5     9   ar
    10     5    12    1
    11     6    11   ar
    12     6    13    1
    13     7    10   ar
    14     7    14    1
    15     8    15    1
    16     8    16    1
    17     8    17    1
    18     9    10   ar
    19     9    18    1
    20    10    19    1
    21    11    20    1
