@<TRIPOS>MOLECULE
IMPHY004767
 52 55 0 0 0
SMALL
GASTEIGER

@<TRIPOS>ATOM
      1 O           5.1350   -1.6725    0.0000 O.3     1  UNL1       -0.3221
      2 O           6.8671   -1.6725    0.0000 O.3     1  UNL1       -0.4569
      3 O           5.1350   -4.6725    0.0000 O.3     1  UNL1       -0.3863
      4 O           6.8671   -3.6725    0.0000 O.3     1  UNL1       -0.3829
      5 O           3.4030   -3.6725    0.0000 O.3     1  UNL1       -0.3860
      6 O           2.5369   -2.1725    0.0000 O.3     1  UNL1       -0.4788
      7 O           3.4030   -0.6725    0.0000 O.2     1  UNL1       -0.2480
      8 O           8.6431    1.3343    0.0000 O.2     1  UNL1       -0.4543
      9 O           5.1350   -0.6725    0.0000 O.3     1  UNL1       -0.5009
     10 O           5.1350    1.3275    0.0000 O.3     1  UNL1       -0.5027
     11 O           5.9793    2.8589    0.0000 O.2     1  UNL1       -0.2869
     12 O          12.1152    2.3626    0.0000 O.3     1  UNL1       -0.5033
     13 O          12.1229    4.3625    0.0000 O.3     1  UNL1       -0.5033
     14 C           5.1350   -3.6725    0.0000 C.3     1  UNL1        0.1157
     15 C           6.0010   -3.1725    0.0000 C.3     1  UNL1        0.1455
     16 C           4.2690   -3.1725    0.0000 C.3     1  UNL1        0.1202
     17 C           6.0010   -2.1725    0.0000 C.3     1  UNL1        0.2314
     18 C           4.2690   -2.1725    0.0000 C.3     1  UNL1        0.1869
     19 C           3.4030   -1.6725    0.0000 C.2     1  UNL1        0.3367
     20 C           6.8671   -0.6725    0.0000 C.ar    1  UNL1        0.1724
     21 C           7.7331   -0.1725    0.0000 C.ar    1  UNL1        0.0271
     22 C           6.0010   -0.1725    0.0000 C.ar    1  UNL1        0.2019
     23 C           7.7331    0.8275    0.0000 C.ar    1  UNL1        0.1465
     24 C           6.8671    1.3275    0.0000 C.ar    1  UNL1        0.1091
     25 C           6.0010    0.8275    0.0000 C.ar    1  UNL1        0.1766
     26 C           6.8510    2.3690    0.0000 C.ar    1  UNL1        0.1967
     27 C           8.6511    2.3759    0.0000 C.ar    1  UNL1        0.1393
     28 C           7.7490    2.8967    0.0000 C.ar    1  UNL1        0.0288
     29 C           9.5191    2.8726    0.0000 C.ar    1  UNL1        0.0211
     30 C          10.3832    2.3692    0.0000 C.ar    1  UNL1       -0.0059
     31 C           9.5229    3.8726    0.0000 C.ar    1  UNL1       -0.0474
     32 C          11.2511    2.8659    0.0000 C.ar    1  UNL1        0.1589
     33 C          10.3909    4.3692    0.0000 C.ar    1  UNL1       -0.0159
     34 C          11.2550    3.8659    0.0000 C.ar    1  UNL1        0.1583
     35 H           5.6720   -3.9825    0.0000 H       1  UNL1        0.0648
     36 H           6.5380   -2.8625    0.0000 H       1  UNL1        0.0683
     37 H           4.2690   -3.7925    0.0000 H       1  UNL1        0.0652
     38 H           6.0010   -1.5525    0.0000 H       1  UNL1        0.1084
     39 H           4.2690   -1.5525    0.0000 H       1  UNL1        0.0742
     40 H           5.6720   -4.9825    0.0000 H       1  UNL1        0.2100
     41 H           7.4040   -3.3625    0.0000 H       1  UNL1        0.2102
     42 H           3.4030   -4.2925    0.0000 H       1  UNL1        0.2100
     43 H           8.2700   -0.4825    0.0000 H       1  UNL1        0.0692
     44 H           2.0000   -1.8625    0.0000 H       1  UNL1        0.2951
     45 H           7.7466    3.5167    0.0000 H       1  UNL1        0.0693
     46 H           4.5981   -0.3625    0.0000 H       1  UNL1        0.2924
     47 H           4.5981    1.0175    0.0000 H       1  UNL1        0.2923
     48 H          10.3808    1.7492    0.0000 H       1  UNL1        0.0662
     49 H           8.9872    4.1846    0.0000 H       1  UNL1        0.0626
     50 H          10.3933    4.9892    0.0000 H       1  UNL1        0.0655
     51 H          12.6533    2.6705    0.0000 H       1  UNL1        0.2923
     52 H          12.1253    4.9825    0.0000 H       1  UNL1        0.2923
@<TRIPOS>BOND
     1     1    17    1
     2     1    18    1
     3    17     2    1
     4     2    20    1
     5    14     3    1
     6     3    40    1
     7     4    15    1
     8     4    41    1
     9    16     5    1
    10     5    42    1
    11     6    19    1
    12     6    44    1
    13     7    19    2
    14     8    23   ar
    15     8    27   ar
    16     9    22    1
    17     9    46    1
    18    10    25    1
    19    10    47    1
    20    11    26    2
    21    12    32    1
    22    12    51    1
    23    13    34    1
    24    13    52    1
    25    14    15    1
    26    14    16    1
    27    14    35    1
    28    15    17    1
    29    15    36    1
    30    16    18    1
    31    16    37    1
    32    17    38    1
    33    18    19    1
    34    18    39    1
    35    20    21   ar
    36    20    22   ar
    37    21    23   ar
    38    21    43    1
    39    22    25   ar
    40    23    24   ar
    41    24    25   ar
    42    24    26   ar
    43    26    28   ar
    44    27    28   ar
    45    27    29    1
    46    28    45    1
    47    29    30   ar
    48    29    31   ar
    49    30    32   ar
    50    30    48    1
    51    31    33   ar
    52    31    49    1
    53    32    34   ar
    54    33    34   ar
    55    33    50    1
