@<TRIPOS>MOLECULE
IMPHY000973
 34 36 0 0 0
SMALL
GASTEIGER

@<TRIPOS>ATOM
      1 O           6.4103   -0.0057    0.0000 O.2     1  UNL1       -0.4546
      2 O           7.9939   -0.9330    0.0000 O.3     1  UNL1       -0.4943
      3 O           2.8660   -0.2010    0.0000 O.3     1  UNL1       -0.4950
      4 O          10.9939    0.7990    0.0000 O.3     1  UNL1       -0.5066
      5 C           5.4641    1.2990    0.0000 C.ar    1  UNL1        0.0210
      6 C           6.9939    0.7990    0.0000 C.ar    1  UNL1        0.1397
      7 C           5.4641    0.2990    0.0000 C.ar    1  UNL1        0.1392
      8 C           7.9939    0.7990    0.0000 C.ar    1  UNL1        0.0591
      9 C           6.4103    1.6038    0.0000 C.ar    1  UNL1       -0.0080
     10 C           4.5981    1.7990    0.0000 C.ar    1  UNL1       -0.0475
     11 C           4.5981   -0.2010    0.0000 C.ar    1  UNL1        0.0230
     12 C           8.4939   -0.0670    0.0000 C.ar    1  UNL1        0.1342
     13 C           8.4939    1.6651    0.0000 C.ar    1  UNL1       -0.0441
     14 C           3.7320    0.2990    0.0000 C.ar    1  UNL1        0.1236
     15 C           3.7320    1.2990    0.0000 C.ar    1  UNL1       -0.0192
     16 C           9.4939   -0.0670    0.0000 C.ar    1  UNL1        0.0222
     17 C           9.4939    1.6651    0.0000 C.ar    1  UNL1       -0.0193
     18 C           9.9939    0.7990    0.0000 C.ar    1  UNL1        0.1204
     19 C           8.4939   -1.7990    0.0000 C.3     1  UNL1        0.0788
     20 C           2.0000    0.2990    0.0000 C.3     1  UNL1        0.0788
     21 H           6.6029    2.1931    0.0000 H       1  UNL1        0.0661
     22 H           4.5981    2.4190    0.0000 H       1  UNL1        0.0626
     23 H           4.5981   -0.8210    0.0000 H       1  UNL1        0.0691
     24 H           8.1839    2.2020    0.0000 H       1  UNL1        0.0627
     25 H           3.1951    1.6090    0.0000 H       1  UNL1        0.0654
     26 H           9.8039   -0.6039    0.0000 H       1  UNL1        0.0691
     27 H           9.8039    2.2020    0.0000 H       1  UNL1        0.0654
     28 H           7.9570   -2.1090    0.0000 H       1  UNL1        0.0660
     29 H           8.8039   -2.3360    0.0000 H       1  UNL1        0.0660
     30 H           9.0309   -1.4890    0.0000 H       1  UNL1        0.0660
     31 H           2.3100    0.8360    0.0000 H       1  UNL1        0.0660
     32 H           1.4631    0.6090    0.0000 H       1  UNL1        0.0660
     33 H           1.6900   -0.2379    0.0000 H       1  UNL1        0.0660
     34 H          11.3039    1.3360    0.0000 H       1  UNL1        0.2921
@<TRIPOS>BOND
     1     1     6   ar
     2     1     7   ar
     3     2    12    1
     4     2    19    1
     5     3    14    1
     6     3    20    1
     7     4    18    1
     8     4    34    1
     9     5     7   ar
    10     5     9   ar
    11     5    10   ar
    12     6     8    1
    13     6     9   ar
    14     7    11   ar
    15     8    12   ar
    16     8    13   ar
    17     9    21    1
    18    10    15   ar
    19    10    22    1
    20    11    14   ar
    21    11    23    1
    22    12    16   ar
    23    13    17   ar
    24    13    24    1
    25    14    15   ar
    26    15    25    1
    27    16    18   ar
    28    16    26    1
    29    17    18   ar
    30    17    27    1
    31    19    28    1
    32    19    29    1
    33    19    30    1
    34    20    31    1
    35    20    32    1
    36    20    33    1
