@<TRIPOS>MOLECULE
IMPHY012363
 76 80 0 0 0
SMALL
GASTEIGER

@<TRIPOS>ATOM
      1 O           5.8285    0.1726    0.0000 O.3     1  UNL1       -0.4828
      2 O           5.9284   -1.9951    0.0000 O.2     1  UNL1       -0.2748
      3 O           8.3454    1.2882    0.0000 O.2     1  UNL1       -0.2758
      4 O           4.0072   -3.3890    0.0000 O.3     1  UNL1       -0.4914
      5 O           2.4750   -2.1035    0.0000 O.3     1  UNL1       -0.5033
      6 N           7.4182   -2.3531    0.0000 N.am    1  UNL1       -0.3008
      7 N           7.7343    3.1204    0.0000 N.3     1  UNL1       -0.3089
      8 N           9.6995    0.5140    0.0000 N.am    1  UNL1       -0.3152
      9 N           4.5791    1.0720    0.0000 N.3     1  UNL1       -0.3159
     10 C           7.2224   -0.6321    0.0000 C.3     1  UNL1        0.1051
     11 C           6.2337   -0.7352    0.0000 C.3     1  UNL1        0.1404
     12 C           7.4316    0.3397    0.0000 C.ar    1  UNL1        0.0104
     13 C           6.8235   -1.5491    0.0000 C.2     1  UNL1        0.2270
     14 C           6.5656    0.8397    0.0000 C.ar    1  UNL1        0.1255
     15 C           8.6965    2.7567    0.0000 C.3     1  UNL1        0.0412
     16 C           8.2976    1.8397    0.0000 C.ar    1  UNL1       -0.0295
     17 C           8.2976    0.8397    0.0000 C.ar    1  UNL1       -0.0496
     18 C           5.2940   -1.0772    0.0000 C.ar    1  UNL1       -0.0026
     19 C           6.3980   -2.2209    0.0000 C.3     1  UNL1        0.0147
     20 C           8.2221   -1.7584    0.0000 C.3     1  UNL1        0.0161
     21 C           6.5656    1.8397    0.0000 C.ar    1  UNL1       -0.0193
     22 C           5.4972   -1.7243    0.0000 C.3     1  UNL1       -0.0360
     23 C           9.7320    2.3615    0.0000 C.3     1  UNL1        0.0434
     24 C           7.4316    2.3397    0.0000 C.ar    1  UNL1       -0.0536
     25 C           8.3701   -0.7694    0.0000 C.3     1  UNL1       -0.0215
     26 C           4.8407   -0.9323    0.0000 C.3     1  UNL1       -0.0390
     27 C           6.7057    3.1066    0.0000 C.3     1  UNL1       -0.0024
     28 C           9.3006   -0.4030    0.0000 C.3     1  UNL1        0.0130
     29 C           5.1204   -2.0621    0.0000 C.ar    1  UNL1       -0.0096
     30 C           4.5279   -0.4344    0.0000 C.ar    1  UNL1       -0.0514
     31 C           5.7536    2.7170    0.0000 C.3     1  UNL1       -0.0278
     32 C           4.5198    0.0450    0.0000 C.3     1  UNL1       -0.0041
     33 C           9.3331    1.4445    0.0000 C.2     1  UNL1        0.2148
     34 C           5.0104    2.0059    0.0000 C.3     1  UNL1       -0.0030
     35 C           4.1808   -2.4042    0.0000 C.ar    1  UNL1        0.1616
     36 C           3.5882   -0.7765    0.0000 C.ar    1  UNL1       -0.0161
     37 C           3.4146   -1.7614    0.0000 C.ar    1  UNL1        0.1585
     38 C           3.0675   -3.7311    0.0000 C.3     1  UNL1        0.0790
     39 H           7.9081   -0.1298    0.0000 H       1  UNL1        0.0484
     40 H           6.3729   -1.3393    0.0000 H       1  UNL1        0.0795
     41 H           9.0356    3.5362    0.0000 H       1  UNL1        0.0515
     42 H           8.8346    0.5297    0.0000 H       1  UNL1        0.0625
     43 H           5.9115   -2.6051    0.0000 H       1  UNL1        0.0464
     44 H           6.5909   -1.6316    0.0000 H       1  UNL1        0.0464
     45 H           8.4493   -2.3352    0.0000 H       1  UNL1        0.0465
     46 H           8.8382   -1.6883    0.0000 H       1  UNL1        0.0465
     47 H           6.0286    2.1497    0.0000 H       1  UNL1        0.0654
     48 H           4.9037   -1.9037    0.0000 H       1  UNL1        0.0281
     49 H           5.8924   -1.2466    0.0000 H       1  UNL1        0.0281
     50 H          10.3042    2.1228    0.0000 H       1  UNL1        0.0377
     51 H           9.9619    2.9373    0.0000 H       1  UNL1        0.0377
     52 H           7.4316    2.9597    0.0000 H       1  UNL1        0.0622
     53 H           8.2466   -0.1618    0.0000 H       1  UNL1        0.0295
     54 H           7.7503   -0.7855    0.0000 H       1  UNL1        0.0295
     55 H           7.8416    3.7311    0.0000 H       1  UNL1        0.1225
     56 H           4.2227   -0.8819    0.0000 H       1  UNL1        0.0278
     57 H           5.3834   -0.6326    0.0000 H       1  UNL1        0.0278
     58 H           6.9386    3.6812    0.0000 H       1  UNL1        0.0425
     59 H           6.8294    2.4990    0.0000 H       1  UNL1        0.0425
     60 H           9.3707   -1.0190    0.0000 H       1  UNL1        0.0462
     61 H           9.9138   -0.4947    0.0000 H       1  UNL1        0.0462
     62 H           5.5954   -2.4606    0.0000 H       1  UNL1        0.0659
     63 H           4.6356    0.1762    0.0000 H       1  UNL1        0.0623
     64 H           5.7600    3.3370    0.0000 H       1  UNL1        0.0290
     65 H           6.0913    2.1970    0.0000 H       1  UNL1        0.0290
     66 H           3.9632    0.3182    0.0000 H       1  UNL1        0.0424
     67 H           5.1346    0.1252    0.0000 H       1  UNL1        0.0424
     68 H           4.7892    2.5851    0.0000 H       1  UNL1        0.0424
     69 H           5.5150    1.6456    0.0000 H       1  UNL1        0.0424
     70 H          10.3194    0.5031    0.0000 H       1  UNL1        0.1487
     71 H           3.9776    1.2224    0.0000 H       1  UNL1        0.1219
     72 H           3.1132   -0.3780    0.0000 H       1  UNL1        0.0655
     73 H           2.0000   -1.7050    0.0000 H       1  UNL1        0.2923
     74 H           2.8554   -3.1485    0.0000 H       1  UNL1        0.0660
     75 H           2.4849   -3.9432    0.0000 H       1  UNL1        0.0660
     76 H           3.2796   -4.3137    0.0000 H       1  UNL1        0.0660
@<TRIPOS>BOND
     1     1    11    1
     2     1    14    1
     3     2    13    2
     4     3    33    2
     5     4    35    1
     6     4    38    1
     7     5    37    1
     8     5    73    1
     9     6    13   am
    10     6    19    1
    11     6    20    1
    12     7    15    1
    13     7    27    1
    14     7    55    1
    15     8    28    1
    16     8    33   am
    17     8    70    1
    18     9    32    1
    19     9    34    1
    20     9    71    1
    21    10    11    1
    22    10    12    1
    23    10    13    1
    24    10    39    1
    25    11    18    1
    26    11    40    1
    27    12    14   ar
    28    12    17   ar
    29    14    21   ar
    30    15    16    1
    31    15    23    1
    32    15    41    1
    33    16    17   ar
    34    16    24   ar
    35    17    42    1
    36    18    29   ar
    37    18    30   ar
    38    19    22    1
    39    19    43    1
    40    19    44    1
    41    20    25    1
    42    20    45    1
    43    20    46    1
    44    21    24   ar
    45    21    47    1
    46    22    26    1
    47    22    48    1
    48    22    49    1
    49    23    33    1
    50    23    50    1
    51    23    51    1
    52    24    52    1
    53    25    28    1
    54    25    53    1
    55    25    54    1
    56    26    32    1
    57    26    56    1
    58    26    57    1
    59    27    31    1
    60    27    58    1
    61    27    59    1
    62    28    60    1
    63    28    61    1
    64    29    35   ar
    65    29    62    1
    66    30    36   ar
    67    30    63    1
    68    31    34    1
    69    31    64    1
    70    31    65    1
    71    32    66    1
    72    32    67    1
    73    34    68    1
    74    34    69    1
    75    35    37   ar
    76    36    37   ar
    77    36    72    1
    78    38    74    1
    79    38    75    1
    80    38    76    1
