@<TRIPOS>MOLECULE
IMPHY011014
 24 24 0 0 0
SMALL
GASTEIGER

@<TRIPOS>ATOM
      1 O           3.7320    1.0000    0.0000 O.3     1  UNL1       -0.4570
      2 O           2.8660    2.5000    0.0000 O.2     1  UNL1       -0.2511
      3 C           2.8660    0.5000    0.0000 C.3     1  UNL1        0.1252
      4 C           2.8660   -0.5000    0.0000 C.ar    1  UNL1       -0.0075
      5 C           2.0000    1.0000    0.0000 C.3     1  UNL1       -0.0234
      6 C           2.0000   -1.0000    0.0000 C.ar    1  UNL1       -0.0551
      7 C           3.7320   -1.0000    0.0000 C.ar    1  UNL1       -0.0551
      8 C           2.0000   -2.0000    0.0000 C.ar    1  UNL1       -0.0614
      9 C           3.7320   -2.0000    0.0000 C.ar    1  UNL1       -0.0614
     10 C           2.8660   -2.5000    0.0000 C.ar    1  UNL1       -0.0617
     11 C           3.7320    2.0000    0.0000 C.2     1  UNL1        0.3045
     12 C           4.5981    2.5000    0.0000 C.3     1  UNL1        0.0333
     13 H           2.8660    1.3500    0.0000 H       1  UNL1        0.0782
     14 H           2.3100    1.5369    0.0000 H       1  UNL1        0.0269
     15 H           1.4631    1.3100    0.0000 H       1  UNL1        0.0269
     16 H           1.6900    0.4631    0.0000 H       1  UNL1        0.0269
     17 H           1.4631   -0.6900    0.0000 H       1  UNL1        0.0621
     18 H           4.2690   -0.6900    0.0000 H       1  UNL1        0.0621
     19 H           1.4631   -2.3100    0.0000 H       1  UNL1        0.0618
     20 H           4.2690   -2.3100    0.0000 H       1  UNL1        0.0618
     21 H           2.8660   -3.1200    0.0000 H       1  UNL1        0.0618
     22 H           4.9081    1.9631    0.0000 H       1  UNL1        0.0342
     23 H           5.1350    2.8100    0.0000 H       1  UNL1        0.0342
     24 H           4.2881    3.0369    0.0000 H       1  UNL1        0.0342
@<TRIPOS>BOND
     1     1     3    1
     2     1    11    1
     3     2    11    2
     4     3     4    1
     5     3     5    1
     6     3    13    1
     7     4     6   ar
     8     4     7   ar
     9     5    14    1
    10     5    15    1
    11     5    16    1
    12     6     8   ar
    13     6    17    1
    14     7     9   ar
    15     7    18    1
    16     8    10   ar
    17     8    19    1
    18     9    10   ar
    19     9    20    1
    20    10    21    1
    21    11    12    1
    22    12    22    1
    23    12    23    1
    24    12    24    1
