@<TRIPOS>MOLECULE
IMPHY015987
 26 26 0 0 0
SMALL
GASTEIGER

@<TRIPOS>ATOM
      1 O           4.5981    0.5000    0.0000 O.3     1  UNL1       -0.3542
      2 O           3.7320    2.0000    0.0000 O.3     1  UNL1       -0.3542
      3 C           2.8660    0.5000    0.0000 C.3     1  UNL1        0.0236
      4 C           3.7320    1.0000    0.0000 C.3     1  UNL1        0.1623
      5 C           2.8660   -0.5000    0.0000 C.ar    1  UNL1       -0.0426
      6 C           2.0000   -1.0000    0.0000 C.ar    1  UNL1       -0.0584
      7 C           3.7320   -1.0000    0.0000 C.ar    1  UNL1       -0.0584
      8 C           2.0000   -2.0000    0.0000 C.ar    1  UNL1       -0.0615
      9 C           3.7320   -2.0000    0.0000 C.ar    1  UNL1       -0.0615
     10 C           2.8660   -2.5000    0.0000 C.ar    1  UNL1       -0.0617
     11 C           5.4641    1.0000    0.0000 C.3     1  UNL1        0.0394
     12 C           4.5981    2.5000    0.0000 C.3     1  UNL1        0.0394
     13 H           2.6540    1.0826    0.0000 H       1  UNL1        0.0362
     14 H           2.2554    0.3923    0.0000 H       1  UNL1        0.0362
     15 H           3.7320    0.3800    0.0000 H       1  UNL1        0.0912
     16 H           1.4631   -0.6900    0.0000 H       1  UNL1        0.0620
     17 H           4.2690   -0.6900    0.0000 H       1  UNL1        0.0620
     18 H           1.4631   -2.3100    0.0000 H       1  UNL1        0.0618
     19 H           4.2690   -2.3100    0.0000 H       1  UNL1        0.0618
     20 H           2.8660   -3.1200    0.0000 H       1  UNL1        0.0618
     21 H           5.7741    0.4631    0.0000 H       1  UNL1        0.0525
     22 H           6.0010    1.3100    0.0000 H       1  UNL1        0.0525
     23 H           5.1541    1.5369    0.0000 H       1  UNL1        0.0525
     24 H           4.9081    1.9631    0.0000 H       1  UNL1        0.0525
     25 H           5.1350    2.8100    0.0000 H       1  UNL1        0.0525
     26 H           4.2881    3.0369    0.0000 H       1  UNL1        0.0525
@<TRIPOS>BOND
     1     1     4    1
     2     1    11    1
     3     2     4    1
     4     2    12    1
     5     3     4    1
     6     3     5    1
     7     3    13    1
     8     3    14    1
     9     4    15    1
    10     5     6   ar
    11     5     7   ar
    12     6     8   ar
    13     6    16    1
    14     7     9   ar
    15     7    17    1
    16     8    10   ar
    17     8    18    1
    18     9    10   ar
    19     9    19    1
    20    10    20    1
    21    11    21    1
    22    11    22    1
    23    11    23    1
    24    12    24    1
    25    12    25    1
    26    12    26    1
