@<TRIPOS>MOLECULE
IMPHY001062
 38 42 0 0 0
SMALL
GASTEIGER

@<TRIPOS>ATOM
      1 O           7.1606   -0.4487    0.0000 O.3     1  UNL1       -0.3585
      2 O           6.2468    2.3638    0.0000 O.3     1  UNL1       -0.3618
      3 O           3.7556    0.9156    0.0000 O.3     1  UNL1       -0.4570
      4 O           6.9381   -1.7782    0.0000 O.3     1  UNL1       -0.3859
      5 O           2.0000    0.8007    0.0000 O.2     1  UNL1       -0.2453
      6 C           6.2468   -0.0415    0.0000 C.3     1  UNL1        0.1356
      7 C           5.7468    1.4973    0.0000 C.3     1  UNL1        0.1048
      8 C           7.0558    0.5463    0.0000 C.3     1  UNL1        0.1204
      9 C           5.4378    0.5463    0.0000 C.3     1  UNL1        0.0623
     10 C           6.7468    1.4973    0.0000 C.3     1  UNL1        0.1174
     11 C           6.2842   -1.0216    0.0000 C.3     1  UNL1        0.0951
     12 C           4.4941    0.2790    0.0000 C.3     1  UNL1        0.1187
     13 C           4.7468    1.4973    0.0000 C.3     1  UNL1       -0.0328
     14 C           4.1123   -0.6244    0.0000 C.3     1  UNL1        0.0280
     15 C           5.5430   -1.6639    0.0000 C.3     1  UNL1       -0.0208
     16 C           4.5782   -1.4875    0.0000 C.3     1  UNL1       -0.0399
     17 C           7.2751   -1.1562    0.0000 C.3     1  UNL1       -0.0333
     18 C           3.1411   -0.5384    0.0000 C.2     1  UNL1        0.0361
     19 C           2.9211    0.4114    0.0000 C.2     1  UNL1        0.3353
     20 C           2.4849   -1.2930    0.0000 C.2     1  UNL1       -0.0883
     21 H           7.8872    0.7231    0.0000 H       1  UNL1        0.0653
     22 H           4.8483    1.1586    0.0000 H       1  UNL1        0.0396
     23 H           7.5233    1.8429    0.0000 H       1  UNL1        0.0652
     24 H           5.0568   -0.3581    0.0000 H       1  UNL1        0.0745
     25 H           4.7468    2.1173    0.0000 H       1  UNL1        0.0258
     26 H           4.1268    1.4973    0.0000 H       1  UNL1        0.0258
     27 H           4.7468    0.8773    0.0000 H       1  UNL1        0.0258
     28 H           3.6450   -1.3345    0.0000 H       1  UNL1        0.0387
     29 H           5.2980   -2.2335    0.0000 H       1  UNL1        0.0294
     30 H           6.0434   -2.0299    0.0000 H       1  UNL1        0.0294
     31 H           3.9806   -1.6527    0.0000 H       1  UNL1        0.0273
     32 H           4.6057   -2.1069    0.0000 H       1  UNL1        0.0273
     33 H           7.1916   -1.7706    0.0000 H       1  UNL1        0.0258
     34 H           7.8894   -1.2397    0.0000 H       1  UNL1        0.0258
     35 H           7.3586   -0.5419    0.0000 H       1  UNL1        0.0258
     36 H           6.7345   -2.3638    0.0000 H       1  UNL1        0.2103
     37 H           1.8763   -1.1746    0.0000 H       1  UNL1        0.0540
     38 H           2.6866   -1.8793    0.0000 H       1  UNL1        0.0540
@<TRIPOS>BOND
     1     6     1    1
     2     1     8    1
     3     2     7    1
     4     2    10    1
     5     3    12    1
     6     3    19    1
     7    11     4    1
     8     4    36    1
     9     5    19    2
    10     6     8    1
    11     6     9    1
    12     6    11    1
    13     7     9    1
    14     7    10    1
    15     7    13    1
    16     8    10    1
    17     8    21    1
    18     9    12    1
    19     9    22    1
    20    10    23    1
    21    11    15    1
    22    11    17    1
    23    12    14    1
    24    12    24    1
    25    13    25    1
    26    13    26    1
    27    13    27    1
    28    14    16    1
    29    14    18    1
    30    14    28    1
    31    15    16    1
    32    15    29    1
    33    15    30    1
    34    16    31    1
    35    16    32    1
    36    17    33    1
    37    17    34    1
    38    17    35    1
    39    18    19    1
    40    18    20    2
    41    20    37    1
    42    20    38    1
