@<TRIPOS>MOLECULE
IMPHY014366
 54 57 0 0 0
SMALL
GASTEIGER

@<TRIPOS>ATOM
      1 O           4.4455   -1.4442    0.0000 O.3     1  UNL1       -0.4562
      2 O           8.8435   -1.9234    0.0000 O.3     1  UNL1       -0.3909
      3 O           7.9896    2.6459    0.0000 O.3     1  UNL1       -0.3877
      4 O           5.3631   -2.9580    0.0000 O.2     1  UNL1       -0.2505
      5 O          10.6195    0.0635    0.0000 O.3     1  UNL1       -0.4647
      6 O           9.7361   -1.4264    0.0000 O.2     1  UNL1       -0.2453
      7 O           2.5033    1.3074    0.0000 O.2     1  UNL1       -0.4706
      8 C           6.2455   -0.4234    0.0000 C.3     1  UNL1       -0.0116
      9 C           7.1115    0.0766    0.0000 C.3     1  UNL1       -0.0201
     10 C           7.9775   -0.4234    0.0000 C.3     1  UNL1        0.0288
     11 C           6.2455   -1.4234    0.0000 C.3     1  UNL1        0.0646
     12 C           7.9775   -1.4234    0.0000 C.3     1  UNL1        0.0658
     13 C           7.1115   -1.9234    0.0000 C.3     1  UNL1       -0.0126
     14 C           5.3515    0.1113    0.0000 C.3     1  UNL1       -0.0049
     15 C           7.0954    1.1181    0.0000 C.3     1  UNL1       -0.0190
     16 C           6.2455    0.5766    0.0000 C.3     1  UNL1       -0.0584
     17 C           8.8875    0.0835    0.0000 C.2     1  UNL1        0.0437
     18 C           8.8435   -0.9234    0.0000 C.3     1  UNL1       -0.0527
     19 C           7.9935    1.6459    0.0000 C.3     1  UNL1        0.0744
     20 C           4.4455   -0.4025    0.0000 C.3     1  UNL1        0.1315
     21 C           5.3515   -1.9580    0.0000 C.2     1  UNL1        0.3114
     22 C           8.8956    1.1251    0.0000 C.2     1  UNL1       -0.0453
     23 C           9.7477   -0.4265    0.0000 C.2     1  UNL1        0.3353
     24 C           3.5814    0.1008    0.0000 C.ar    1  UNL1        0.0304
     25 C           2.6663   -0.3024    0.0000 C.ar    1  UNL1       -0.0172
     26 C           3.4807    1.0957    0.0000 C.ar    1  UNL1        0.0983
     27 C           2.0000    0.4433    0.0000 C.ar    1  UNL1        0.0921
     28 C          11.4796   -0.4465    0.0000 C.3     1  UNL1        0.0820
     29 H           7.8443    0.5073    0.0000 H       1  UNL1        0.0316
     30 H           6.2520   -2.2733    0.0000 H       1  UNL1        0.0420
     31 H           7.9775   -2.0434    0.0000 H       1  UNL1        0.0602
     32 H           6.7130   -2.3983    0.0000 H       1  UNL1        0.0298
     33 H           7.5100   -2.3983    0.0000 H       1  UNL1        0.0298
     34 H           5.7561    0.5811    0.0000 H       1  UNL1        0.0310
     35 H           4.9579    0.5903    0.0000 H       1  UNL1        0.0310
     36 H           6.8774    1.6985    0.0000 H       1  UNL1        0.0296
     37 H           6.4863    1.0026    0.0000 H       1  UNL1        0.0296
     38 H           6.8655    0.5766    0.0000 H       1  UNL1        0.0235
     39 H           6.2455    1.1966    0.0000 H       1  UNL1        0.0235
     40 H           5.6255    0.5766    0.0000 H       1  UNL1        0.0235
     41 H           8.5335   -1.4603    0.0000 H       1  UNL1        0.0239
     42 H           9.3805   -1.2334    0.0000 H       1  UNL1        0.0239
     43 H           9.1535   -0.3864    0.0000 H       1  UNL1        0.0239
     44 H           7.4548    1.9528    0.0000 H       1  UNL1        0.0638
     45 H           3.9079   -0.7115    0.0000 H       1  UNL1        0.0786
     46 H           9.4337    1.4330    0.0000 H       1  UNL1        0.0603
     47 H           8.8435   -2.5434    0.0000 H       1  UNL1        0.2098
     48 H           8.5254    2.9580    0.0000 H       1  UNL1        0.2102
     49 H           2.5350   -0.9084    0.0000 H       1  UNL1        0.0653
     50 H           3.9430    1.5088    0.0000 H       1  UNL1        0.1033
     51 H           1.3832    0.3809    0.0000 H       1  UNL1        0.1029
     52 H          11.1635   -0.9798    0.0000 H       1  UNL1        0.0661
     53 H          12.0130   -0.7627    0.0000 H       1  UNL1        0.0661
     54 H          11.7958    0.0868    0.0000 H       1  UNL1        0.0661
@<TRIPOS>BOND
     1     1    20    1
     2     1    21    1
     3    12     2    1
     4     2    47    1
     5    19     3    1
     6     3    48    1
     7     4    21    2
     8     5    23    1
     9     5    28    1
    10     6    23    2
    11     7    26   ar
    12     7    27   ar
    13     8     9    1
    14     8    11    1
    15     8    14    1
    16     8    16    1
    17     9    10    1
    18     9    15    1
    19     9    29    1
    20    10    12    1
    21    10    17    1
    22    10    18    1
    23    11    13    1
    24    11    21    1
    25    11    30    1
    26    12    13    1
    27    12    31    1
    28    13    32    1
    29    13    33    1
    30    14    20    1
    31    14    34    1
    32    14    35    1
    33    15    19    1
    34    15    36    1
    35    15    37    1
    36    16    38    1
    37    16    39    1
    38    16    40    1
    39    17    22    2
    40    17    23    1
    41    18    41    1
    42    18    42    1
    43    18    43    1
    44    19    22    1
    45    19    44    1
    46    20    24    1
    47    20    45    1
    48    22    46    1
    49    24    25   ar
    50    24    26   ar
    51    25    27   ar
    52    25    49    1
    53    26    50    1
    54    27    51    1
    55    28    52    1
    56    28    53    1
    57    28    54    1
