@<TRIPOS>MOLECULE
IMPHY012783
 45 49 0 0 0
SMALL
GASTEIGER

@<TRIPOS>ATOM
      1 O           6.3678    0.1982    0.0000 O.3     1  UNL1       -0.3748
      2 O           3.4842   -1.4893    0.0000 O.2     1  UNL1       -0.2744
      3 N           3.0886    0.3376    0.0000 N.3     1  UNL1       -0.3092
      4 N           4.7443   -2.7494    0.0000 N.am    1  UNL1       -0.2844
      5 C           4.7443    0.9801    0.0000 C.3     1  UNL1        0.0045
      6 C           5.2443   -1.2106    0.0000 C.3     1  UNL1        0.1012
      7 C           4.3788    1.9554    0.0000 C.3     1  UNL1       -0.0100
      8 C           4.1208    0.1982    0.0000 C.3     1  UNL1        0.0147
      9 C           6.1453   -0.7767    0.0000 C.3     1  UNL1        0.0773
     10 C           4.3434   -0.7767    0.0000 C.3     1  UNL1       -0.0166
     11 C           4.4733    0.0794    0.0000 C.3     1  UNL1       -0.0184
     12 C           5.7443    0.9801    0.0000 C.3     1  UNL1        0.0528
     13 C           3.3500    2.1186    0.0000 C.2     1  UNL1       -0.0564
     14 C           6.0533   -1.7984    0.0000 C.ar    1  UNL1       -0.0087
     15 C           2.7005    1.3042    0.0000 C.3     1  UNL1        0.0178
     16 C           4.4353   -1.7984    0.0000 C.2     1  UNL1        0.2303
     17 C           5.7443   -2.7494    0.0000 C.ar    1  UNL1        0.0377
     18 C           2.9882    3.0509    0.0000 C.2     1  UNL1       -0.0864
     19 C           7.0688   -1.5661    0.0000 C.ar    1  UNL1       -0.0557
     20 C           6.4293   -3.5342    0.0000 C.ar    1  UNL1       -0.0402
     21 C           7.7717   -2.3348    0.0000 C.ar    1  UNL1       -0.0614
     22 C           2.0000    3.2038    0.0000 C.3     1  UNL1       -0.0465
     23 C           7.4498   -3.3254    0.0000 C.ar    1  UNL1       -0.0600
     24 H           5.0133    0.4215    0.0000 H       1  UNL1        0.0344
     25 H           4.7709    2.4357    0.0000 H       1  UNL1        0.0351
     26 H           3.7026   -0.2595    0.0000 H       1  UNL1        0.0464
     27 H           6.6300   -1.1632    0.0000 H       1  UNL1        0.0610
     28 H           3.7234   -0.7767    0.0000 H       1  UNL1        0.0294
     29 H           4.2054   -1.3811    0.0000 H       1  UNL1        0.0294
     30 H           3.8581    0.1562    0.0000 H       1  UNL1        0.0296
     31 H           4.2909   -0.5131    0.0000 H       1  UNL1        0.0296
     32 H           6.3029    1.2491    0.0000 H       1  UNL1        0.0563
     33 H           5.6064    1.5845    0.0000 H       1  UNL1        0.0563
     34 H           2.7076   -0.1516    0.0000 H       1  UNL1        0.1225
     35 H           2.2891    1.7681    0.0000 H       1  UNL1        0.0470
     36 H           2.1732    0.9782    0.0000 H       1  UNL1        0.0470
     37 H           4.3799   -3.2510    0.0000 H       1  UNL1        0.1548
     38 H           3.3767    3.5342    0.0000 H       1  UNL1        0.0569
     39 H           7.2535   -0.9743    0.0000 H       1  UNL1        0.0621
     40 H           6.2309   -4.1216    0.0000 H       1  UNL1        0.0636
     41 H           8.3776   -2.2036    0.0000 H       1  UNL1        0.0618
     42 H           2.0948    3.8165    0.0000 H       1  UNL1        0.0272
     43 H           1.3873    3.2985    0.0000 H       1  UNL1        0.0272
     44 H           1.9052    2.5910    0.0000 H       1  UNL1        0.0272
     45 H           7.8629   -3.7878    0.0000 H       1  UNL1        0.0618
@<TRIPOS>BOND
     1     1     9    1
     2     1    12    1
     3     2    16    2
     4     3     8    1
     5     3    15    1
     6     3    34    1
     7     4    16   am
     8     4    17    1
     9     4    37    1
    10     5     7    1
    11     5     8    1
    12     5    12    1
    13     5    24    1
    14     6     9    1
    15     6    10    1
    16     6    14    1
    17     6    16    1
    18     7    11    1
    19     7    13    1
    20     7    25    1
    21     8    10    1
    22     8    26    1
    23     9    11    1
    24     9    27    1
    25    10    28    1
    26    10    29    1
    27    11    30    1
    28    11    31    1
    29    12    32    1
    30    12    33    1
    31    13    15    1
    32    13    18    2
    33    14    17   ar
    34    14    19   ar
    35    15    35    1
    36    15    36    1
    37    17    20   ar
    38    18    22    1
    39    18    38    1
    40    19    21   ar
    41    19    39    1
    42    20    23   ar
    43    20    40    1
    44    21    23   ar
    45    21    41    1
    46    22    42    1
    47    22    43    1
    48    22    44    1
    49    23    45    1
