@<TRIPOS>MOLECULE
IMPHY001184
 50 52 0 0 0
SMALL
GASTEIGER

@<TRIPOS>ATOM
      1 O           3.7230   -2.5134    0.0000 O.3     1  UNL1       -0.4569
      2 O           5.4378   -4.4086    0.0000 O.3     1  UNL1       -0.3859
      3 O           7.0268   -4.5019    0.0000 O.3     1  UNL1       -0.3889
      4 O           4.5447    0.6520    0.0000 O.3     1  UNL1       -0.4570
      5 O           2.0000   -2.0812    0.0000 O.2     1  UNL1       -0.2453
      6 O           6.1053    1.4035    0.0000 O.2     1  UNL1       -0.2452
      7 O           4.8036    4.1064    0.0000 O.3     1  UNL1       -0.3902
      8 C           5.4786   -2.4396    0.0000 C.3     1  UNL1        0.0344
      9 C           6.3796   -2.0057    0.0000 C.3     1  UNL1       -0.0087
     10 C           5.6146   -3.4243    0.0000 C.3     1  UNL1        0.0957
     11 C           4.5777   -2.0057    0.0000 C.3     1  UNL1        0.1198
     12 C           6.5929   -3.6010    0.0000 C.3     1  UNL1        0.0846
     13 C           7.0647   -2.7260    0.0000 C.3     1  UNL1       -0.0172
     14 C           4.3551   -1.0308    0.0000 C.3     1  UNL1        0.0651
     15 C           6.6021   -1.0308    0.0000 C.2     1  UNL1       -0.0695
     16 C           4.9786   -0.2489    0.0000 C.3     1  UNL1        0.1174
     17 C           5.9786   -0.2489    0.0000 C.3     1  UNL1        0.0063
     18 C           4.6239   -3.5603    0.0000 C.3     1  UNL1       -0.0332
     19 C           3.3648   -0.9442    0.0000 C.2     1  UNL1        0.0396
     20 C           2.9749   -1.8587    0.0000 C.2     1  UNL1        0.3354
     21 C           7.5770   -0.8083    0.0000 C.2     1  UNL1       -0.0991
     22 C           2.8504   -0.0867    0.0000 C.2     1  UNL1       -0.0882
     23 C           5.1081    1.4783    0.0000 C.2     1  UNL1        0.3371
     24 C           4.6742    2.3792    0.0000 C.2     1  UNL1        0.0546
     25 C           5.2375    3.2055    0.0000 C.3     1  UNL1        0.0754
     26 C           3.6770    2.4540    0.0000 C.2     1  UNL1       -0.0865
     27 H           4.9775   -2.8047    0.0000 H       1  UNL1        0.0371
     28 H           6.9775   -1.8415    0.0000 H       1  UNL1        0.0351
     29 H           4.6047   -2.6251    0.0000 H       1  UNL1        0.0745
     30 H           7.2127   -3.6152    0.0000 H       1  UNL1        0.0622
     31 H           7.5765   -3.0760    0.0000 H       1  UNL1        0.0297
     32 H           7.4666   -2.2538    0.0000 H       1  UNL1        0.0297
     33 H           4.1107   -0.4610    0.0000 H       1  UNL1        0.0423
     34 H           5.3085    0.2760    0.0000 H       1  UNL1        0.0744
     35 H           6.5372    0.0201    0.0000 H       1  UNL1        0.0346
     36 H           5.8407    0.3555    0.0000 H       1  UNL1        0.0346
     37 H           4.5396   -2.9460    0.0000 H       1  UNL1        0.0258
     38 H           4.0097   -3.6446    0.0000 H       1  UNL1        0.0258
     39 H           4.7082   -4.1745    0.0000 H       1  UNL1        0.0258
     40 H           4.8545   -4.6187    0.0000 H       1  UNL1        0.2103
     41 H           7.6450   -4.5483    0.0000 H       1  UNL1        0.2099
     42 H           7.9988   -1.2628    0.0000 H       1  UNL1        0.0535
     43 H           7.7598   -0.2158    0.0000 H       1  UNL1        0.0535
     44 H           3.1514    0.4554    0.0000 H       1  UNL1        0.0540
     45 H           2.2305   -0.0970    0.0000 H       1  UNL1        0.0540
     46 H           5.6813    2.7726    0.0000 H       1  UNL1        0.0609
     47 H           5.7409    3.5674    0.0000 H       1  UNL1        0.0609
     48 H           3.4080    3.0126    0.0000 H       1  UNL1        0.0540
     49 H           3.3277    1.9417    0.0000 H       1  UNL1        0.0540
     50 H           5.1529    4.6187    0.0000 H       1  UNL1        0.2099
@<TRIPOS>BOND
     1     1    11    1
     2     1    20    1
     3     2    10    1
     4     2    40    1
     5     3    12    1
     6     3    41    1
     7     4    16    1
     8     4    23    1
     9     5    20    2
    10     6    23    2
    11     7    25    1
    12     7    50    1
    13     8     9    1
    14     8    10    1
    15     8    11    1
    16     8    27    1
    17     9    13    1
    18     9    15    1
    19     9    28    1
    20    10    12    1
    21    10    18    1
    22    11    14    1
    23    11    29    1
    24    12    13    1
    25    12    30    1
    26    13    31    1
    27    13    32    1
    28    14    16    1
    29    14    19    1
    30    14    33    1
    31    15    17    1
    32    15    21    2
    33    16    17    1
    34    16    34    1
    35    17    35    1
    36    17    36    1
    37    18    37    1
    38    18    38    1
    39    18    39    1
    40    19    20    1
    41    19    22    2
    42    21    42    1
    43    21    43    1
    44    22    44    1
    45    22    45    1
    46    23    24    1
    47    24    25    1
    48    24    26    2
    49    25    46    1
    50    25    47    1
    51    26    48    1
    52    26    49    1
