@<TRIPOS>MOLECULE
IMPHY015752
 40 43 0 0 0
SMALL
GASTEIGER

@<TRIPOS>ATOM
      1 O           4.5037    2.2236    0.0000 O.3     1  UNL1       -0.3647
      2 C           4.5037   -0.8336    0.0000 C.3     1  UNL1       -0.0288
      3 C           5.4047   -0.3997    0.0000 C.3     1  UNL1       -0.0296
      4 C           5.3302   -1.3974    0.0000 C.3     1  UNL1       -0.0283
      5 C           3.6027   -0.3997    0.0000 C.3     1  UNL1       -0.0293
      6 C           3.3802    0.5752    0.0000 C.3     1  UNL1       -0.0063
      7 C           4.0037    1.3571    0.0000 C.3     1  UNL1        0.0963
      8 C           5.0037    1.3571    0.0000 C.3     1  UNL1        0.0887
      9 C           5.6272    0.5752    0.0000 C.3     1  UNL1       -0.0202
     10 C           2.7480   -0.9073    0.0000 C.3     1  UNL1       -0.0404
     11 C           2.3899    0.6618    0.0000 C.3     1  UNL1       -0.0470
     12 C           2.0000   -0.2527    0.0000 C.3     1  UNL1       -0.0498
     13 C           6.3274   -1.4721    0.0000 C.3     1  UNL1       -0.0593
     14 C           4.7668   -2.2236    0.0000 C.3     1  UNL1       -0.0593
     15 C           3.0037    1.3571    0.0000 C.3     1  UNL1       -0.0331
     16 C           2.6567   -1.9032    0.0000 C.3     1  UNL1       -0.0621
     17 H           4.1936   -1.3705    0.0000 H       1  UNL1        0.0312
     18 H           6.0178   -0.4920    0.0000 H       1  UNL1        0.0310
     19 H           3.6298   -1.0191    0.0000 H       1  UNL1        0.0310
     20 H           3.9847    0.4373    0.0000 H       1  UNL1        0.0332
     21 H           5.5160    1.7063    0.0000 H       1  UNL1        0.0625
     22 H           6.1858    0.3062    0.0000 H       1  UNL1        0.0294
     23 H           6.0138    1.0600    0.0000 H       1  UNL1        0.0294
     24 H           3.2723   -1.2383    0.0000 H       1  UNL1        0.0301
     25 H           2.5085    1.2703    0.0000 H       1  UNL1        0.0269
     26 H           1.7972    0.8437    0.0000 H       1  UNL1        0.0269
     27 H           1.4584    0.0491    0.0000 H       1  UNL1        0.0268
     28 H           1.6430   -0.7595    0.0000 H       1  UNL1        0.0268
     29 H           6.2810   -2.0904    0.0000 H       1  UNL1        0.0235
     30 H           6.9456   -1.5184    0.0000 H       1  UNL1        0.0235
     31 H           6.3737   -0.8538    0.0000 H       1  UNL1        0.0235
     32 H           4.2546   -1.8743    0.0000 H       1  UNL1        0.0235
     33 H           4.4176   -2.7359    0.0000 H       1  UNL1        0.0235
     34 H           5.2791   -2.5729    0.0000 H       1  UNL1        0.0235
     35 H           3.0037    1.9771    0.0000 H       1  UNL1        0.0258
     36 H           2.3837    1.3571    0.0000 H       1  UNL1        0.0258
     37 H           3.0037    0.7371    0.0000 H       1  UNL1        0.0258
     38 H           2.0393   -1.8465    0.0000 H       1  UNL1        0.0233
     39 H           2.6000   -2.5206    0.0000 H       1  UNL1        0.0233
     40 H           3.2741   -1.9598    0.0000 H       1  UNL1        0.0233
@<TRIPOS>BOND
     1     1     7    1
     2     1     8    1
     3     2     3    1
     4     2     4    1
     5     2     5    1
     6     2    17    1
     7     3     4    1
     8     3     9    1
     9     3    18    1
    10     4    13    1
    11     4    14    1
    12     5     6    1
    13     5    10    1
    14     5    19    1
    15     6     7    1
    16     6    11    1
    17     6    20    1
    18     7     8    1
    19     7    15    1
    20     8     9    1
    21     8    21    1
    22     9    22    1
    23     9    23    1
    24    10    12    1
    25    10    16    1
    26    10    24    1
    27    11    12    1
    28    11    25    1
    29    11    26    1
    30    12    27    1
    31    12    28    1
    32    13    29    1
    33    13    30    1
    34    13    31    1
    35    14    32    1
    36    14    33    1
    37    14    34    1
    38    15    35    1
    39    15    36    1
    40    15    37    1
    41    16    38    1
    42    16    39    1
    43    16    40    1
