@<TRIPOS>MOLECULE
IMPHY011322
 24 23 0 0 0
SMALL
GASTEIGER

@<TRIPOS>ATOM
      1 O           8.9282    1.3100    0.0000 O.2     1  UNL1       -0.2963
      2 C           3.7320   -0.6900    0.0000 C.3     1  UNL1       -0.0499
      3 C           2.8660   -0.1900    0.0000 C.3     1  UNL1       -0.0556
      4 C           4.5981   -0.1900    0.0000 C.3     1  UNL1       -0.0345
      5 C           2.0000   -0.6900    0.0000 C.3     1  UNL1       -0.0653
      6 C           5.4641   -0.6900    0.0000 C.2     1  UNL1       -0.0840
      7 C           6.3301   -0.1900    0.0000 C.2     1  UNL1       -0.0656
      8 C           7.1962   -0.6900    0.0000 C.2     1  UNL1       -0.0590
      9 C           8.0622   -0.1900    0.0000 C.2     1  UNL1       -0.0225
     10 C           8.0622    0.8100    0.0000 C.2     1  UNL1        0.1431
     11 H           3.3335   -1.1650    0.0000 H       1  UNL1        0.0268
     12 H           4.1306   -1.1650    0.0000 H       1  UNL1        0.0268
     13 H           3.2646    0.2849    0.0000 H       1  UNL1        0.0263
     14 H           2.4675    0.2849    0.0000 H       1  UNL1        0.0263
     15 H           4.9966    0.2849    0.0000 H       1  UNL1        0.0307
     16 H           4.1996    0.2849    0.0000 H       1  UNL1        0.0307
     17 H           1.6900   -0.1531    0.0000 H       1  UNL1        0.0230
     18 H           1.4631   -1.0000    0.0000 H       1  UNL1        0.0230
     19 H           2.3100   -1.2269    0.0000 H       1  UNL1        0.0230
     20 H           5.4641   -1.3100    0.0000 H       1  UNL1        0.0572
     21 H           6.3301    0.4300    0.0000 H       1  UNL1        0.0614
     22 H           7.1962   -1.3100    0.0000 H       1  UNL1        0.0618
     23 H           8.5991   -0.5000    0.0000 H       1  UNL1        0.0649
     24 H           7.5252    1.1200    0.0000 H       1  UNL1        0.1075
@<TRIPOS>BOND
     1     1    10    2
     2     2     3    1
     3     2     4    1
     4     2    11    1
     5     2    12    1
     6     3     5    1
     7     3    13    1
     8     3    14    1
     9     4     6    1
    10     4    15    1
    11     4    16    1
    12     5    17    1
    13     5    18    1
    14     5    19    1
    15     6     7    2
    16     6    20    1
    17     7     8    1
    18     7    21    1
    19     8     9    2
    20     8    22    1
    21     9    10    1
    22     9    23    1
    23    10    24    1
