@<TRIPOS>MOLECULE
IMPHY001597
 108 114 0 0 0
SMALL
GASTEIGER

@<TRIPOS>ATOM
      1 O           5.1483   -5.7417    0.0000 O.3     1  UNL1       -0.3684
      2 O           6.3178   -4.1322    0.0000 O.3     1  UNL1       -0.4528
      3 O           7.0057   -3.2798    0.0000 O.3     1  UNL1       -0.4545
      4 O           7.4821   -1.9332    0.0000 O.3     1  UNL1       -0.3839
      5 O           2.4962   -3.0851    0.0000 O.3     1  UNL1       -0.3907
      6 O           2.8690   -1.9332    0.0000 O.2     1  UNL1       -0.2936
      7 O           3.5446   -0.3023    0.0000 O.3     1  UNL1       -0.3799
      8 O           7.5875    0.4787    0.0000 O.3     1  UNL1       -0.4550
      9 O           7.6038   -5.2924    0.0000 O.2     1  UNL1       -0.2511
     10 O           8.4245   -2.2863    0.0000 O.2     1  UNL1       -0.2449
     11 O           6.3628    1.7035    0.0000 O.2     1  UNL1       -0.2478
     12 O           9.0017    1.8929    0.0000 O.3     1  UNL1       -0.3786
     13 O           7.2593    5.0495    0.0000 O.2     1  UNL1       -0.2702
     14 N           6.8110    3.3765    0.0000 N.am    1  UNL1       -0.3015
     15 C           5.1755   -3.2398    0.0000 C.3     1  UNL1        0.0580
     16 C           5.3274   -4.2703    0.0000 C.3     1  UNL1        0.1696
     17 C           4.2517   -2.8571    0.0000 C.3     1  UNL1        0.0651
     18 C           4.5059   -4.9108    0.0000 C.3     1  UNL1        0.1035
     19 C           6.0994   -2.8571    0.0000 C.3     1  UNL1        0.1404
     20 C           6.4821   -1.9332    0.0000 C.3     1  UNL1        0.1156
     21 C           3.4156   -3.4784    0.0000 C.3     1  UNL1        0.0704
     22 C           3.5436   -4.5122    0.0000 C.3     1  UNL1        0.0043
     23 C           6.0994   -1.0094    0.0000 C.3     1  UNL1        0.0216
     24 C           5.9766   -5.0959    0.0000 C.3     1  UNL1        0.0909
     25 C           3.8690   -1.9332    0.0000 C.2     1  UNL1        0.1745
     26 C           7.1552   -1.1916    0.0000 C.3     1  UNL1        0.0215
     27 C           5.1755   -0.6267    0.0000 C.2     1  UNL1       -0.0234
     28 C           3.3278   -2.4744    0.0000 C.3     1  UNL1       -0.0498
     29 C           4.2517   -1.0094    0.0000 C.3     1  UNL1        0.1356
     30 C           6.8804   -0.2284    0.0000 C.3     1  UNL1        0.1271
     31 C           5.9172    0.0464    0.0000 C.2     1  UNL1       -0.0299
     32 C           6.3971    0.1014    0.0000 C.3     1  UNL1       -0.0532
     33 C           7.2102   -0.7117    0.0000 C.3     1  UNL1       -0.0532
     34 C           5.6897    1.0202    0.0000 C.3     1  UNL1       -0.0400
     35 C           6.6259   -5.0835    0.0000 C.2     1  UNL1        0.3046
     36 C           8.0019   -3.1927    0.0000 C.2     1  UNL1        0.3395
     37 C           5.9560   -5.8260    0.0000 C.3     1  UNL1        0.0333
     38 C           7.3287    1.4446    0.0000 C.2     1  UNL1        0.3388
     39 C           8.5755   -4.0118    0.0000 C.ar    1  UNL1        0.0590
     40 C           8.0358    2.1518    0.0000 C.3     1  UNL1        0.1740
     41 C           9.5717   -3.9245    0.0000 C.ar    1  UNL1       -0.0478
     42 C           8.1530   -4.9181    0.0000 C.ar    1  UNL1       -0.0478
     43 C           7.7770    3.1177    0.0000 C.3     1  UNL1        0.0850
     44 C          10.1453   -4.7436    0.0000 C.ar    1  UNL1       -0.0610
     45 C           8.7266   -5.7372    0.0000 C.ar    1  UNL1       -0.0610
     46 C           9.7228   -5.6500    0.0000 C.ar    1  UNL1       -0.0617
     47 C           8.4841    3.8248    0.0000 C.ar    1  UNL1       -0.0242
     48 C           9.4500    3.5660    0.0000 C.ar    1  UNL1       -0.0567
     49 C           8.2253    4.7907    0.0000 C.ar    1  UNL1       -0.0567
     50 C           6.5522    4.3424    0.0000 C.2     1  UNL1        0.2446
     51 C          10.1571    4.2731    0.0000 C.ar    1  UNL1       -0.0614
     52 C           8.9324    5.4978    0.0000 C.ar    1  UNL1       -0.0614
     53 C           5.5863    4.6012    0.0000 C.ar    1  UNL1        0.0367
     54 C           9.8983    5.2390    0.0000 C.ar    1  UNL1       -0.0617
     55 C           5.3275    5.5672    0.0000 C.ar    1  UNL1       -0.0496
     56 C           4.8792    3.8941    0.0000 C.ar    1  UNL1       -0.0496
     57 C           4.3616    5.8260    0.0000 C.ar    1  UNL1       -0.0610
     58 C           3.9133    4.1530    0.0000 C.ar    1  UNL1       -0.0610
     59 C           3.6545    5.1189    0.0000 C.ar    1  UNL1       -0.0617
     60 H           5.9608   -3.5651    0.0000 H       1  UNL1        0.0388
     61 H           3.9897   -5.5860    0.0000 H       1  UNL1        0.0638
     62 H           6.6773   -2.6324    0.0000 H       1  UNL1        0.0768
     63 H           2.9201   -3.8511    0.0000 H       1  UNL1        0.0604
     64 H           2.9243   -4.4819    0.0000 H       1  UNL1        0.0317
     65 H           3.4078   -5.1171    0.0000 H       1  UNL1        0.0317
     66 H           6.3585   -5.5844    0.0000 H       1  UNL1        0.0601
     67 H           6.4645   -4.7134    0.0000 H       1  UNL1        0.0601
     68 H           7.5297   -1.6857    0.0000 H       1  UNL1        0.0334
     69 H           7.7099   -0.9145    0.0000 H       1  UNL1        0.0334
     70 H           3.5650   -1.9016    0.0000 H       1  UNL1        0.0240
     71 H           2.7550   -2.2372    0.0000 H       1  UNL1        0.0240
     72 H           3.0905   -3.0472    0.0000 H       1  UNL1        0.0240
     73 H           4.3726   -0.4013    0.0000 H       1  UNL1        0.0721
     74 H           7.4806   -0.3840    0.0000 H       1  UNL1        0.0783
     75 H           7.3707   -1.3106    0.0000 H       1  UNL1        0.0239
     76 H           7.8091   -0.5513    0.0000 H       1  UNL1        0.0239
     77 H           7.0498   -0.1129    0.0000 H       1  UNL1        0.0239
     78 H           6.9959   -0.0590    0.0000 H       1  UNL1        0.0239
     79 H           6.5575    0.7003    0.0000 H       1  UNL1        0.0239
     80 H           5.7982    0.2619    0.0000 H       1  UNL1        0.0239
     81 H           7.7921   -1.3963    0.0000 H       1  UNL1        0.2104
     82 H           2.0000   -3.4568    0.0000 H       1  UNL1        0.2098
     83 H           6.2935    1.1613    0.0000 H       1  UNL1        0.0276
     84 H           5.5487    1.6240    0.0000 H       1  UNL1        0.0276
     85 H           5.0860    0.8792    0.0000 H       1  UNL1        0.0276
     86 H           3.7050    0.2966    0.0000 H       1  UNL1        0.2108
     87 H           5.4957   -5.4107    0.0000 H       1  UNL1        0.0342
     88 H           5.5406   -6.2863    0.0000 H       1  UNL1        0.0342
     89 H           6.4163   -6.2413    0.0000 H       1  UNL1        0.0342
     90 H           8.1963    1.5529    0.0000 H       1  UNL1        0.0733
     91 H           9.8337   -3.3626    0.0000 H       1  UNL1        0.0626
     92 H           7.5353   -4.9722    0.0000 H       1  UNL1        0.0626
     93 H           7.6165    3.7166    0.0000 H       1  UNL1        0.0580
     94 H          10.7630   -4.6896    0.0000 H       1  UNL1        0.0618
     95 H           8.4646   -6.2991    0.0000 H       1  UNL1        0.0618
     96 H           9.1622    1.2941    0.0000 H       1  UNL1        0.2106
     97 H          10.0784   -6.1578    0.0000 H       1  UNL1        0.0618
     98 H           6.3726    2.9381    0.0000 H       1  UNL1        0.1497
     99 H           9.6105    2.9671    0.0000 H       1  UNL1        0.0621
    100 H           7.6264    4.9512    0.0000 H       1  UNL1        0.0621
    101 H          10.7560    4.1126    0.0000 H       1  UNL1        0.0618
    102 H           8.7719    6.0967    0.0000 H       1  UNL1        0.0618
    103 H          10.3367    5.6774    0.0000 H       1  UNL1        0.0618
    104 H           5.7659    6.0056    0.0000 H       1  UNL1        0.0625
    105 H           5.0397    3.2953    0.0000 H       1  UNL1        0.0625
    106 H           4.2011    6.4249    0.0000 H       1  UNL1        0.0618
    107 H           3.4749    3.7145    0.0000 H       1  UNL1        0.0618
    108 H           3.0556    5.2793    0.0000 H       1  UNL1        0.0618
@<TRIPOS>BOND
     1     1    18    1
     2     1    24    1
     3    16     2    1
     4     2    35    1
     5    19     3    1
     6     3    36    1
     7    20     4    1
     8     4    81    1
     9    21     5    1
    10     5    82    1
    11     6    25    2
    12    29     7    1
    13     7    86    1
    14    30     8    1
    15     8    38    1
    16     9    35    2
    17    10    36    2
    18    11    38    2
    19    40    12    1
    20    12    96    1
    21    13    50    2
    22    43    14    1
    23    14    50   am
    24    14    98    1
    25    15    16    1
    26    15    17    1
    27    15    19    1
    28    15    60    1
    29    16    18    1
    30    16    24    1
    31    17    21    1
    32    17    25    1
    33    17    28    1
    34    18    22    1
    35    18    61    1
    36    19    20    1
    37    19    62    1
    38    20    23    1
    39    20    26    1
    40    21    22    1
    41    21    63    1
    42    22    64    1
    43    22    65    1
    44    23    27    1
    45    23    32    1
    46    23    33    1
    47    24    66    1
    48    24    67    1
    49    25    29    1
    50    26    30    1
    51    26    68    1
    52    26    69    1
    53    27    29    1
    54    27    31    2
    55    28    70    1
    56    28    71    1
    57    28    72    1
    58    29    73    1
    59    30    31    1
    60    30    74    1
    61    31    34    1
    62    32    78    1
    63    32    79    1
    64    32    80    1
    65    33    75    1
    66    33    76    1
    67    33    77    1
    68    34    83    1
    69    34    84    1
    70    34    85    1
    71    35    37    1
    72    36    39    1
    73    37    87    1
    74    37    88    1
    75    37    89    1
    76    38    40    1
    77    39    41   ar
    78    39    42   ar
    79    40    43    1
    80    40    90    1
    81    41    44   ar
    82    41    91    1
    83    42    45   ar
    84    42    92    1
    85    43    47    1
    86    43    93    1
    87    44    46   ar
    88    44    94    1
    89    45    46   ar
    90    45    95    1
    91    46    97    1
    92    47    48   ar
    93    47    49   ar
    94    48    51   ar
    95    48    99    1
    96    49    52   ar
    97    49   100    1
    98    50    53    1
    99    51    54   ar
   100    51   101    1
   101    52    54   ar
   102    52   102    1
   103    53    55   ar
   104    53    56   ar
   105    54   103    1
   106    55    57   ar
   107    55   104    1
   108    56    58   ar
   109    56   105    1
   110    57    59   ar
   111    57   106    1
   112    58    59   ar
   113    58   107    1
   114    59   108    1
