@<TRIPOS>MOLECULE
IMPHY013647
 34 36 0 0 0
SMALL
GASTEIGER

@<TRIPOS>ATOM
      1 CL          7.0568   -0.6096    0.0000 Cl      1  UNL1       -0.0831
      2 O           3.9511    1.5978    0.0000 O.3     1  UNL1       -0.3353
      3 O           5.0691    1.2345    0.0000 O.3     1  UNL1       -0.3578
      4 O           2.7282   -1.5569    0.0000 O.2     1  UNL1       -0.2919
      5 O           6.0202    0.8349    0.0000 O.2     1  UNL1       -0.2862
      6 C           3.4511    0.0590    0.0000 C.3     1  UNL1        0.1000
      7 C           2.6420    0.6467    0.0000 C.3     1  UNL1        0.0069
      8 C           2.5372   -0.3482    0.0000 C.3     1  UNL1       -0.0280
      9 C           2.9511    1.5978    0.0000 C.3     1  UNL1        0.0716
     10 C           4.2601    0.6467    0.0000 C.3     1  UNL1        0.2462
     11 C           3.5440   -0.9785    0.0000 C.2     1  UNL1        0.1689
     12 C           2.9511    2.5978    0.0000 C.3     1  UNL1       -0.0357
     13 C           2.0000    1.9068    0.0000 C.3     1  UNL1       -0.0357
     14 C           5.2181    0.2378    0.0000 C.2     1  UNL1        0.2242
     15 C           4.4922   -1.4095    0.0000 C.2     1  UNL1       -0.0064
     16 C           5.3349   -0.7973    0.0000 C.2     1  UNL1        0.0442
     17 C           6.2500   -1.2005    0.0000 C.2     1  UNL1        0.0476
     18 C           6.3584   -2.1946    0.0000 C.2     1  UNL1       -0.0681
     19 C           7.2735   -2.5978    0.0000 C.3     1  UNL1       -0.0451
     20 H           1.8106    0.8236    0.0000 H       1  UNL1        0.0340
     21 H           1.9187   -0.3914    0.0000 H       1  UNL1        0.0281
     22 H           2.6872   -0.9498    0.0000 H       1  UNL1        0.0281
     23 H           3.5711    2.5978    0.0000 H       1  UNL1        0.0257
     24 H           2.9511    3.2178    0.0000 H       1  UNL1        0.0257
     25 H           2.3311    2.5978    0.0000 H       1  UNL1        0.0257
     26 H           2.1916    2.4965    0.0000 H       1  UNL1        0.0257
     27 H           1.4103    2.0984    0.0000 H       1  UNL1        0.0257
     28 H           1.8084    1.3172    0.0000 H       1  UNL1        0.0257
     29 H           4.5547   -2.0264    0.0000 H       1  UNL1        0.0660
     30 H           5.0043    1.8511    0.0000 H       1  UNL1        0.2132
     31 H           5.8582   -2.5609    0.0000 H       1  UNL1        0.0584
     32 H           7.0235   -3.1652    0.0000 H       1  UNL1        0.0272
     33 H           7.8409   -2.8478    0.0000 H       1  UNL1        0.0272
     34 H           7.5235   -2.0304    0.0000 H       1  UNL1        0.0272
@<TRIPOS>BOND
     1     1    17    1
     2     2     9    1
     3     2    10    1
     4    10     3    1
     5     3    30    1
     6     4    11    2
     7     5    14    2
     8     6     7    1
     9     6     8    1
    10     6    10    1
    11     6    11    1
    12     7     8    1
    13     7     9    1
    14     7    20    1
    15     8    21    1
    16     8    22    1
    17     9    12    1
    18     9    13    1
    19    10    14    1
    20    11    15    1
    21    12    23    1
    22    12    24    1
    23    12    25    1
    24    13    26    1
    25    13    27    1
    26    13    28    1
    27    14    16    1
    28    15    16    2
    29    15    29    1
    30    16    17    1
    31    17    18    2
    32    18    19    1
    33    18    31    1
    34    19    32    1
    35    19    33    1
    36    19    34    1
