@<TRIPOS>MOLECULE
IMPHY011879
 42 43 0 0 0
SMALL
GASTEIGER

@<TRIPOS>ATOM
      1 O           2.8660   -4.7500    0.0000 O.3     1  UNL1       -0.4914
      2 O           7.1962    5.7500    0.0000 O.3     1  UNL1       -0.5068
      3 O           4.5981    0.2500    0.0000 O.2     1  UNL1       -0.2708
      4 O           4.5981   -5.7500    0.0000 O.3     1  UNL1       -0.5033
      5 N           6.3301    0.2500    0.0000 N.am    1  UNL1       -0.3115
      6 C           7.1962    1.7500    0.0000 C.3     1  UNL1       -0.0120
      7 C           6.3301    1.2500    0.0000 C.3     1  UNL1        0.0159
      8 C           7.1962    2.7500    0.0000 C.ar    1  UNL1       -0.0457
      9 C           6.3301    3.2500    0.0000 C.ar    1  UNL1       -0.0551
     10 C           8.0622    3.2500    0.0000 C.ar    1  UNL1       -0.0551
     11 C           6.3301    4.2500    0.0000 C.ar    1  UNL1       -0.0199
     12 C           8.0622    4.2500    0.0000 C.ar    1  UNL1       -0.0199
     13 C           5.4641   -0.2500    0.0000 C.2     1  UNL1        0.2369
     14 C           4.5981   -2.7500    0.0000 C.ar    1  UNL1       -0.0212
     15 C           7.1962    4.7500    0.0000 C.ar    1  UNL1        0.1169
     16 C           4.5981   -1.7500    0.0000 C.2     1  UNL1       -0.0496
     17 C           5.4641   -1.2500    0.0000 C.2     1  UNL1        0.0007
     18 C           3.7320   -3.2500    0.0000 C.ar    1  UNL1       -0.0092
     19 C           3.7320   -4.2500    0.0000 C.ar    1  UNL1        0.1618
     20 C           5.4641   -3.2500    0.0000 C.ar    1  UNL1       -0.0509
     21 C           4.5981   -4.7500    0.0000 C.ar    1  UNL1        0.1585
     22 C           5.4641   -4.2500    0.0000 C.ar    1  UNL1       -0.0160
     23 C           2.0000   -4.2500    0.0000 C.3     1  UNL1        0.0790
     24 H           7.4082    1.1674    0.0000 H       1  UNL1        0.0328
     25 H           7.8067    1.8577    0.0000 H       1  UNL1        0.0328
     26 H           6.1181    1.8326    0.0000 H       1  UNL1        0.0465
     27 H           5.7196    1.1423    0.0000 H       1  UNL1        0.0465
     28 H           6.8671   -0.0600    0.0000 H       1  UNL1        0.1490
     29 H           5.7932    2.9400    0.0000 H       1  UNL1        0.0621
     30 H           8.5991    2.9400    0.0000 H       1  UNL1        0.0621
     31 H           5.7932    4.5600    0.0000 H       1  UNL1        0.0654
     32 H           8.5991    4.5600    0.0000 H       1  UNL1        0.0654
     33 H           4.0611   -1.4400    0.0000 H       1  UNL1        0.0625
     34 H           6.0010   -1.5600    0.0000 H       1  UNL1        0.0669
     35 H           3.1951   -2.9400    0.0000 H       1  UNL1        0.0661
     36 H           6.0010   -2.9400    0.0000 H       1  UNL1        0.0625
     37 H           6.0010   -4.5600    0.0000 H       1  UNL1        0.0655
     38 H           7.7331    6.0600    0.0000 H       1  UNL1        0.2921
     39 H           5.1350   -6.0600    0.0000 H       1  UNL1        0.2923
     40 H           2.3100   -3.7131    0.0000 H       1  UNL1        0.0660
     41 H           1.4631   -3.9400    0.0000 H       1  UNL1        0.0660
     42 H           1.6900   -4.7869    0.0000 H       1  UNL1        0.0660
@<TRIPOS>BOND
     1     1    19    1
     2     1    23    1
     3     2    15    1
     4     2    38    1
     5     3    13    2
     6     4    21    1
     7     4    39    1
     8     5     7    1
     9     5    13   am
    10     5    28    1
    11     6     7    1
    12     6     8    1
    13     6    24    1
    14     6    25    1
    15     7    26    1
    16     7    27    1
    17     8     9   ar
    18     8    10   ar
    19     9    11   ar
    20     9    29    1
    21    10    12   ar
    22    10    30    1
    23    11    15   ar
    24    11    31    1
    25    12    15   ar
    26    12    32    1
    27    13    17    1
    28    14    16    1
    29    14    18   ar
    30    14    20   ar
    31    16    17    2
    32    16    33    1
    33    17    34    1
    34    18    19   ar
    35    18    35    1
    36    19    21   ar
    37    20    22   ar
    38    20    36    1
    39    21    22   ar
    40    22    37    1
    41    23    40    1
    42    23    41    1
    43    23    42    1
