@<TRIPOS>MOLECULE
IMPHY001455
 38 40 0 0 0
SMALL
GASTEIGER

@<TRIPOS>ATOM
      1 O           6.0519   -2.1500    0.0000 O.2     1  UNL1       -0.5057
      2 O           2.5381   -1.1463    0.0000 O.3     1  UNL1       -0.3944
      3 O           4.2702    0.9087    0.0000 O.2     1  UNL1       -0.2834
      4 O           6.0519    1.9192    0.0000 O.2     1  UNL1       -0.2832
      5 C           4.2702   -1.1396    0.0000 C.3     1  UNL1        0.0117
      6 C           5.1343   -0.6363    0.0000 C.2     1  UNL1        0.0500
      7 C           6.9343    0.3846    0.0000 C.ar    1  UNL1        0.0439
      8 C           6.9343   -0.6154    0.0000 C.ar    1  UNL1        0.0283
      9 C           7.8003    0.8846    0.0000 C.ar    1  UNL1       -0.0060
     10 C           6.0403   -1.1501    0.0000 C.2     1  UNL1        0.1319
     11 C           8.6663    0.3846    0.0000 C.ar    1  UNL1       -0.0143
     12 C           5.1343    0.4054    0.0000 C.2     1  UNL1        0.2328
     13 C           6.0403    0.9192    0.0000 C.2     1  UNL1        0.2340
     14 C           7.8003   -1.1154    0.0000 C.ar    1  UNL1       -0.0498
     15 C           3.4022   -0.6429    0.0000 C.3     1  UNL1        0.0510
     16 C           4.2740   -2.1396    0.0000 C.3     1  UNL1       -0.0561
     17 C           8.6663   -0.6154    0.0000 C.ar    1  UNL1       -0.0531
     18 C           9.5763    0.8914    0.0000 C.ar    1  UNL1       -0.0427
     19 C           7.7842    1.9261    0.0000 C.ar    1  UNL1       -0.0533
     20 C           9.5844    1.9330    0.0000 C.ar    1  UNL1       -0.0582
     21 C           8.6823    2.4538    0.0000 C.ar    1  UNL1       -0.0609
     22 C          10.4365    0.3814    0.0000 C.3     1  UNL1       -0.0391
     23 H           3.7344   -1.4517    0.0000 H       1  UNL1        0.0371
     24 H           3.7989   -0.1665    0.0000 H       1  UNL1        0.0563
     25 H           3.0019   -0.1695    0.0000 H       1  UNL1        0.0563
     26 H           7.8003   -1.7354    0.0000 H       1  UNL1        0.0625
     27 H           3.6540   -2.1420    0.0000 H       1  UNL1        0.0236
     28 H           4.2764   -2.7596    0.0000 H       1  UNL1        0.0236
     29 H           4.8940   -2.1372    0.0000 H       1  UNL1        0.0236
     30 H           9.2032   -0.9254    0.0000 H       1  UNL1        0.0624
     31 H           7.2438    2.2298    0.0000 H       1  UNL1        0.0624
     32 H          10.1225    2.2409    0.0000 H       1  UNL1        0.0620
     33 H           8.6799    3.0738    0.0000 H       1  UNL1        0.0618
     34 H          10.1203   -0.1519    0.0000 H       1  UNL1        0.0278
     35 H          10.9698    0.0652    0.0000 H       1  UNL1        0.0278
     36 H          10.7527    0.9147    0.0000 H       1  UNL1        0.0278
     37 H           6.5924   -2.4538    0.0000 H       1  UNL1        0.2922
     38 H           2.0000   -0.8383    0.0000 H       1  UNL1        0.2094
@<TRIPOS>BOND
     1     1    10    1
     2     1    37    1
     3     2    15    1
     4     2    38    1
     5     3    12    2
     6     4    13    2
     7     5     6    1
     8     5    15    1
     9     5    16    1
    10     5    23    1
    11     6    10    2
    12     6    12    1
    13     7     8   ar
    14     7     9   ar
    15     7    13    1
    16     8    10    1
    17     8    14   ar
    18     9    11   ar
    19     9    19   ar
    20    11    17   ar
    21    11    18   ar
    22    12    13    1
    23    14    17   ar
    24    14    26    1
    25    15    24    1
    26    15    25    1
    27    16    27    1
    28    16    28    1
    29    16    29    1
    30    17    30    1
    31    18    20   ar
    32    18    22    1
    33    19    21   ar
    34    19    31    1
    35    20    21   ar
    36    20    32    1
    37    21    33    1
    38    22    34    1
    39    22    35    1
    40    22    36    1
