@<TRIPOS>MOLECULE
IMPHY008471
 77 82 0 0 0
SMALL
GASTEIGER

@<TRIPOS>ATOM
      1 O           6.0166    3.1709    0.0000 O.3     1  UNL1       -0.3913
      2 O           3.4244    2.0551    0.0000 O.3     1  UNL1       -0.4552
      3 O          10.7488   -1.5847    0.0000 O.3     1  UNL1       -0.4575
      4 O           2.0000    1.1709    0.0000 O.2     1  UNL1       -0.2456
      5 O          12.3910   -1.0339    0.0000 O.2     1  UNL1       -0.2453
      6 C           6.0166    0.1709    0.0000 C.3     1  UNL1       -0.0154
      7 C           5.1506    0.6709    0.0000 C.3     1  UNL1        0.0045
      8 C           6.8826    0.6709    0.0000 C.3     1  UNL1       -0.0263
      9 C           5.1503   -0.3295    0.0000 C.3     1  UNL1       -0.0362
     10 C           7.7926    0.1640    0.0000 C.3     1  UNL1       -0.0230
     11 C           7.8007   -0.8776    0.0000 C.3     1  UNL1       -0.0232
     12 C           5.1506    1.6709    0.0000 C.3     1  UNL1        0.0340
     13 C           6.0005   -0.8706    0.0000 C.3     1  UNL1       -0.0458
     14 C           6.8826    1.6709    0.0000 C.3     1  UNL1       -0.0226
     15 C           6.8986   -1.3984    0.0000 C.3     1  UNL1       -0.0463
     16 C           6.0166    2.1709    0.0000 C.3     1  UNL1        0.0628
     17 C           8.7887   -1.1874    0.0000 C.3     1  UNL1       -0.0292
     18 C           8.7758    0.4891    0.0000 C.3     1  UNL1       -0.0466
     19 C           4.3797    0.0646    0.0000 C.2     1  UNL1       -0.0701
     20 C           9.3901   -0.3445    0.0000 C.3     1  UNL1       -0.0488
     21 C           4.3797    2.2772    0.0000 C.3     1  UNL1        0.1142
     22 C           7.7849    1.1640    0.0000 C.3     1  UNL1       -0.0588
     23 C           7.8084   -1.8775    0.0000 C.3     1  UNL1       -0.0588
     24 C           9.1067   -2.1355    0.0000 C.3     1  UNL1       -0.0030
     25 C           3.4244    0.2867    0.0000 C.2     1  UNL1        0.0192
     26 C           4.1519    3.2510    0.0000 C.3     1  UNL1       -0.0247
     27 C           4.9990    3.0624    0.0000 C.3     1  UNL1       -0.0247
     28 C          10.0867   -2.3341    0.0000 C.3     1  UNL1        0.1096
     29 C           3.0000    1.1709    0.0000 C.2     1  UNL1        0.3322
     30 C           8.4446   -2.8849    0.0000 C.3     1  UNL1       -0.0588
     31 C          10.4047   -3.2822    0.0000 C.3     1  UNL1        0.0036
     32 C          11.3848   -3.4809    0.0000 C.2     1  UNL1       -0.0708
     33 C          11.7289   -1.7834    0.0000 C.2     1  UNL1        0.3349
     34 C          12.0469   -2.7315    0.0000 C.2     1  UNL1        0.0297
     35 C          13.0269   -2.9301    0.0000 C.3     1  UNL1       -0.0332
     36 H           7.6155    1.1016    0.0000 H       1  UNL1        0.0313
     37 H           4.5397   -0.4372    0.0000 H       1  UNL1        0.0280
     38 H           5.3624   -0.9121    0.0000 H       1  UNL1        0.0280
     39 H           5.2113    2.5187    0.0000 H       1  UNL1        0.0373
     40 H           5.3914   -0.7551    0.0000 H       1  UNL1        0.0271
     41 H           5.7825   -1.4510    0.0000 H       1  UNL1        0.0271
     42 H           7.4932    1.5632    0.0000 H       1  UNL1        0.0293
     43 H           7.0947    2.2535    0.0000 H       1  UNL1        0.0293
     44 H           6.4976   -1.8713    0.0000 H       1  UNL1        0.0271
     45 H           7.2959   -1.8743    0.0000 H       1  UNL1        0.0271
     46 H           6.5536    2.4809    0.0000 H       1  UNL1        0.0598
     47 H           9.6294   -1.3128    0.0000 H       1  UNL1        0.0310
     48 H           9.3108    0.8024    0.0000 H       1  UNL1        0.0271
     49 H           8.5204    1.0540    0.0000 H       1  UNL1        0.0271
     50 H           4.5144   -0.5406    0.0000 H       1  UNL1        0.0580
     51 H           9.8542   -0.7556    0.0000 H       1  UNL1        0.0268
     52 H           9.8478    0.0738    0.0000 H       1  UNL1        0.0268
     53 H           8.4049    1.1688    0.0000 H       1  UNL1        0.0235
     54 H           7.7802    1.7840    0.0000 H       1  UNL1        0.0235
     55 H           7.1650    1.1592    0.0000 H       1  UNL1        0.0235
     56 H           7.1884   -1.8823    0.0000 H       1  UNL1        0.0235
     57 H           7.8132   -2.4975    0.0000 H       1  UNL1        0.0235
     58 H           8.4284   -1.8727    0.0000 H       1  UNL1        0.0235
     59 H           9.3038   -2.7233    0.0000 H       1  UNL1        0.0337
     60 H           3.0365   -0.1970    0.0000 H       1  UNL1        0.0686
     61 H           6.5536    3.4809    0.0000 H       1  UNL1        0.2098
     62 H           4.7556    3.3922    0.0000 H       1  UNL1        0.0268
     63 H           4.0107    3.8547    0.0000 H       1  UNL1        0.0268
     64 H           3.5482    3.1097    0.0000 H       1  UNL1        0.0268
     65 H           5.4858    2.6785    0.0000 H       1  UNL1        0.0268
     66 H           5.3829    3.5492    0.0000 H       1  UNL1        0.0268
     67 H           4.5121    3.4464    0.0000 H       1  UNL1        0.0268
     68 H           9.8165   -1.5283    0.0000 H       1  UNL1        0.0740
     69 H           7.9800   -2.4744    0.0000 H       1  UNL1        0.0234
     70 H           8.0341   -3.3495    0.0000 H       1  UNL1        0.0234
     71 H           8.9092   -3.2954    0.0000 H       1  UNL1        0.0234
     72 H           9.7916   -3.3743    0.0000 H       1  UNL1        0.0343
     73 H          10.3889   -3.9020    0.0000 H       1  UNL1        0.0343
     74 H          11.5819   -4.0687    0.0000 H       1  UNL1        0.0578
     75 H          12.9038   -3.5378    0.0000 H       1  UNL1        0.0280
     76 H          13.6346   -3.0533    0.0000 H       1  UNL1        0.0280
     77 H          13.1501   -2.3225    0.0000 H       1  UNL1        0.0280
@<TRIPOS>BOND
     1    16     1    1
     2     1    61    1
     3     2    21    1
     4     2    29    1
     5     3    28    1
     6     3    33    1
     7     4    29    2
     8     5    33    2
     9     6     7    1
    10     6     8    1
    11     6     9    1
    12     6    13    1
    13     7     9    1
    14     7    12    1
    15     7    19    1
    16     8    10    1
    17     8    14    1
    18     8    36    1
    19     9    37    1
    20     9    38    1
    21    10    11    1
    22    10    18    1
    23    10    22    1
    24    11    15    1
    25    11    17    1
    26    11    23    1
    27    12    16    1
    28    12    21    1
    29    12    39    1
    30    13    15    1
    31    13    40    1
    32    13    41    1
    33    14    16    1
    34    14    42    1
    35    14    43    1
    36    15    44    1
    37    15    45    1
    38    16    46    1
    39    17    20    1
    40    17    24    1
    41    17    47    1
    42    18    20    1
    43    18    48    1
    44    18    49    1
    45    19    25    2
    46    19    50    1
    47    20    51    1
    48    20    52    1
    49    21    26    1
    50    21    27    1
    51    22    53    1
    52    22    54    1
    53    22    55    1
    54    23    56    1
    55    23    57    1
    56    23    58    1
    57    24    28    1
    58    24    30    1
    59    24    59    1
    60    25    29    1
    61    25    60    1
    62    26    62    1
    63    26    63    1
    64    26    64    1
    65    27    65    1
    66    27    66    1
    67    27    67    1
    68    28    31    1
    69    28    68    1
    70    30    69    1
    71    30    70    1
    72    30    71    1
    73    31    32    1
    74    31    72    1
    75    31    73    1
    76    32    34    2
    77    32    74    1
    78    33    34    1
    79    34    35    1
    80    35    75    1
    81    35    76    1
    82    35    77    1
