@<TRIPOS>MOLECULE
IMPHY015740
 56 62 0 0 0
SMALL
GASTEIGER

@<TRIPOS>ATOM
      1 O           9.1259   -2.0331    0.0000 O.3     1  UNL1       -0.5053
      2 O           2.9438    1.5361    0.0000 O.3     1  UNL1       -0.5053
      3 O           8.1908    2.5089    0.0000 O.3     1  UNL1       -0.5060
      4 O           7.3449    2.9973    0.0000 O.3     1  UNL1       -0.5060
      5 O           9.9708   -0.4387    0.0000 O.3     1  UNL1       -0.5059
      6 O           3.9022    3.0651    0.0000 O.3     1  UNL1       -0.5059
      7 O           8.2322   -3.6389    0.0000 O.2     1  UNL1       -0.2871
      8 O           2.0000   -0.0407    0.0000 O.2     1  UNL1       -0.2871
      9 C           6.4739   -0.4880    0.0000 C.ar    1  UNL1       -0.0001
     10 C           5.6079    0.0120    0.0000 C.ar    1  UNL1       -0.0001
     11 C           7.3399    0.0120    0.0000 C.ar    1  UNL1        0.0088
     12 C           5.6079    1.0120    0.0000 C.ar    1  UNL1        0.0088
     13 C           7.3399    1.0120    0.0000 C.ar    1  UNL1        0.0363
     14 C           6.4739    1.5120    0.0000 C.ar    1  UNL1        0.0363
     15 C           6.4578   -1.5295    0.0000 C.ar    1  UNL1       -0.0021
     16 C           4.7140   -0.5227    0.0000 C.ar    1  UNL1       -0.0021
     17 C           8.2499   -0.4949    0.0000 C.ar    1  UNL1        0.0670
     18 C           4.7140    1.5466    0.0000 C.ar    1  UNL1        0.0670
     19 C           7.3559   -2.0573    0.0000 C.ar    1  UNL1        0.0715
     20 C           3.8079   -0.0088    0.0000 C.ar    1  UNL1        0.0715
     21 C           8.2580   -1.5365    0.0000 C.ar    1  UNL1        0.1394
     22 C           3.8079    1.0328    0.0000 C.ar    1  UNL1        0.1394
     23 C           8.1982    1.5089    0.0000 C.ar    1  UNL1        0.1288
     24 C           6.4752    2.5037    0.0000 C.ar    1  UNL1        0.1288
     25 C           9.0893    0.0334    0.0000 C.ar    1  UNL1        0.1316
     26 C           4.7518    2.5376    0.0000 C.ar    1  UNL1        0.1316
     27 C           5.5059   -2.0502    0.0000 C.2     1  UNL1       -0.0502
     28 C           4.7390   -1.6074    0.0000 C.2     1  UNL1       -0.0502
     29 C           9.0636    1.0247    0.0000 C.ar    1  UNL1        0.0227
     30 C           5.6231    3.0111    0.0000 C.ar    1  UNL1        0.0227
     31 C           7.3642   -3.1423    0.0000 C.2     1  UNL1        0.1904
     32 C           2.8641   -0.5441    0.0000 C.2     1  UNL1        0.1904
     33 C           5.4892   -3.1350    0.0000 C.2     1  UNL1       -0.0462
     34 C           3.8079   -2.1643    0.0000 C.2     1  UNL1       -0.0462
     35 C           6.4246   -3.6847    0.0000 C.2     1  UNL1       -0.0113
     36 C           2.8641   -1.6291    0.0000 C.2     1  UNL1       -0.0113
     37 C           4.6174   -3.6250    0.0000 C.3     1  UNL1       -0.0396
     38 C           3.8194   -3.1642    0.0000 C.3     1  UNL1       -0.0396
     39 H           4.9751   -1.7299    0.0000 H       1  UNL1        0.0626
     40 H           5.2819   -1.9070    0.0000 H       1  UNL1        0.0626
     41 H           9.5944    1.3452    0.0000 H       1  UNL1        0.0691
     42 H           5.6353    3.6310    0.0000 H       1  UNL1        0.0691
     43 H           6.4222   -4.3047    0.0000 H       1  UNL1        0.0659
     44 H           2.3284   -1.9411    0.0000 H       1  UNL1        0.0659
     45 H           9.6616   -1.7211    0.0000 H       1  UNL1        0.2922
     46 H           2.9462    2.1561    0.0000 H       1  UNL1        0.2922
     47 H           8.7254    2.8228    0.0000 H       1  UNL1        0.2922
     48 H           7.3494    3.6172    0.0000 H       1  UNL1        0.2922
     49 H           4.3137   -3.0845    0.0000 H       1  UNL1        0.0278
     50 H           4.0770   -3.9287    0.0000 H       1  UNL1        0.0278
     51 H           4.9212   -4.1654    0.0000 H       1  UNL1        0.0278
     52 H           3.1995   -3.1714    0.0000 H       1  UNL1        0.0278
     53 H           3.8266   -3.7842    0.0000 H       1  UNL1        0.0278
     54 H           4.4394   -3.1571    0.0000 H       1  UNL1        0.0278
     55 H          10.4976   -0.1117    0.0000 H       1  UNL1        0.2922
     56 H           3.9220    3.6847    0.0000 H       1  UNL1        0.2922
@<TRIPOS>BOND
     1     1    21    1
     2     1    45    1
     3     2    22    1
     4     2    46    1
     5     3    23    1
     6     3    47    1
     7     4    24    1
     8     4    48    1
     9     5    25    1
    10     5    55    1
    11     6    26    1
    12     6    56    1
    13     7    31    2
    14     8    32    2
    15     9    10   ar
    16     9    11   ar
    17     9    15   ar
    18    10    12   ar
    19    10    16   ar
    20    11    13   ar
    21    11    17   ar
    22    12    14   ar
    23    12    18   ar
    24    13    14   ar
    25    13    23   ar
    26    14    24   ar
    27    15    19   ar
    28    15    27    2
    29    16    20   ar
    30    16    28    2
    31    17    21   ar
    32    17    25   ar
    33    18    22   ar
    34    18    26   ar
    35    19    21   ar
    36    19    31    1
    37    20    22   ar
    38    20    32    1
    39    23    29   ar
    40    24    30   ar
    41    25    29   ar
    42    26    30   ar
    43    27    33    1
    44    27    39    1
    45    28    34    1
    46    28    40    1
    47    29    41    1
    48    30    42    1
    49    31    35    1
    50    32    36    1
    51    33    35    2
    52    33    37    1
    53    34    36    2
    54    34    38    1
    55    35    43    1
    56    36    44    1
    57    37    49    1
    58    37    50    1
    59    37    51    1
    60    38    52    1
    61    38    53    1
    62    38    54    1
