@<TRIPOS>MOLECULE
IMPHY003459
 52 54 0 0 0
SMALL
GASTEIGER

@<TRIPOS>ATOM
      1 C           3.8000   -0.4370    0.0000 C.3     1  UNL1       -0.0222
      2 C           3.8000   -1.4370    0.0000 C.3     1  UNL1       -0.0296
      3 C           4.6660    0.0630    0.0000 C.3     1  UNL1       -0.0142
      4 C           2.9061   -1.9717    0.0000 C.3     1  UNL1       -0.0315
      5 C           2.9061    0.0976    0.0000 C.3     1  UNL1       -0.0468
      6 C           4.6660   -1.9370    0.0000 C.3     1  UNL1       -0.0455
      7 C           2.0000   -1.4578    0.0000 C.3     1  UNL1       -0.0476
      8 C           5.5321   -0.4370    0.0000 C.2     1  UNL1       -0.0690
      9 C           2.0000   -0.4162    0.0000 C.3     1  UNL1       -0.0520
     10 C           5.5321   -1.4370    0.0000 C.3     1  UNL1       -0.0312
     11 C           4.6500    1.1045    0.0000 C.3     1  UNL1       -0.0449
     12 C           3.8000    0.5630    0.0000 C.3     1  UNL1       -0.0587
     13 C           5.5480    1.6322    0.0000 C.3     1  UNL1       -0.0401
     14 C           2.4161   -2.8434    0.0000 C.3     1  UNL1       -0.0595
     15 C           3.4160   -2.8319    0.0000 C.3     1  UNL1       -0.0595
     16 C           6.4501    1.1114    0.0000 C.3     1  UNL1        0.0039
     17 C           6.4421    0.0698    0.0000 C.2     1  UNL1       -0.0749
     18 C           7.4501    1.1076    0.0000 C.3     1  UNL1       -0.0526
     19 C           6.9534    1.9755    0.0000 C.2     1  UNL1       -0.0815
     20 C           6.4568    2.8434    0.0000 C.2     1  UNL1       -0.1018
     21 H           3.8066   -2.2870    0.0000 H       1  UNL1        0.0311
     22 H           5.3989    0.4936    0.0000 H       1  UNL1        0.0351
     23 H           3.3107    0.5674    0.0000 H       1  UNL1        0.0271
     24 H           2.5124    0.5766    0.0000 H       1  UNL1        0.0271
     25 H           4.2675   -2.4120    0.0000 H       1  UNL1        0.0271
     26 H           5.0646   -2.4120    0.0000 H       1  UNL1        0.0271
     27 H           1.3891   -1.3518    0.0000 H       1  UNL1        0.0271
     28 H           1.7909   -2.0415    0.0000 H       1  UNL1        0.0271
     29 H           1.7909    0.1675    0.0000 H       1  UNL1        0.0266
     30 H           1.3891   -0.5223    0.0000 H       1  UNL1        0.0266
     31 H           5.7441   -2.0196    0.0000 H       1  UNL1        0.0310
     32 H           6.1426   -1.3294    0.0000 H       1  UNL1        0.0310
     33 H           4.4319    1.6849    0.0000 H       1  UNL1        0.0272
     34 H           4.0408    0.9890    0.0000 H       1  UNL1        0.0272
     35 H           4.4200    0.5630    0.0000 H       1  UNL1        0.0235
     36 H           3.8000    1.1830    0.0000 H       1  UNL1        0.0235
     37 H           3.1800    0.5630    0.0000 H       1  UNL1        0.0235
     38 H           5.9453    2.1082    0.0000 H       1  UNL1        0.0277
     39 H           5.1470    2.1051    0.0000 H       1  UNL1        0.0277
     40 H           1.8756   -2.5397    0.0000 H       1  UNL1        0.0235
     41 H           2.1123   -3.3839    0.0000 H       1  UNL1        0.0235
     42 H           2.9566   -3.1472    0.0000 H       1  UNL1        0.0235
     43 H           2.8827   -3.1481    0.0000 H       1  UNL1        0.0235
     44 H           3.7322   -3.3652    0.0000 H       1  UNL1        0.0235
     45 H           3.9494   -2.5157    0.0000 H       1  UNL1        0.0235
     46 H           6.9754   -0.2464    0.0000 H       1  UNL1        0.0580
     47 H           7.4477    0.4876    0.0000 H       1  UNL1        0.0241
     48 H           8.0701    1.1052    0.0000 H       1  UNL1        0.0241
     49 H           7.4525    1.7276    0.0000 H       1  UNL1        0.0241
     50 H           7.5734    1.9731    0.0000 H       1  UNL1        0.0575
     51 H           6.7688    3.3792    0.0000 H       1  UNL1        0.0532
     52 H           5.8368    2.8458    0.0000 H       1  UNL1        0.0532
@<TRIPOS>BOND
     1     1     2    1
     2     1     3    1
     3     1     5    1
     4     1    12    1
     5     2     4    1
     6     2     6    1
     7     2    21    1
     8     3     8    1
     9     3    11    1
    10     3    22    1
    11     4     7    1
    12     4    14    1
    13     4    15    1
    14     5     9    1
    15     5    23    1
    16     5    24    1
    17     6    10    1
    18     6    25    1
    19     6    26    1
    20     7     9    1
    21     7    27    1
    22     7    28    1
    23     8    10    1
    24     8    17    2
    25     9    29    1
    26     9    30    1
    27    10    31    1
    28    10    32    1
    29    11    13    1
    30    11    33    1
    31    11    34    1
    32    12    35    1
    33    12    36    1
    34    12    37    1
    35    13    16    1
    36    13    38    1
    37    13    39    1
    38    14    40    1
    39    14    41    1
    40    14    42    1
    41    15    43    1
    42    15    44    1
    43    15    45    1
    44    16    17    1
    45    16    18    1
    46    16    19    1
    47    17    46    1
    48    18    47    1
    49    18    48    1
    50    18    49    1
    51    19    20    2
    52    19    50    1
    53    20    51    1
    54    20    52    1
