@<TRIPOS>MOLECULE
IMPHY004959
 45 47 0 0 0
SMALL
GASTEIGER

@<TRIPOS>ATOM
      1 O           6.0682    0.5746    0.0000 O.2     1  UNL1       -0.4507
      2 O          10.3984   -0.9254    0.0000 O.3     1  UNL1       -0.5031
      3 O           7.8003    2.5746    0.0000 O.3     1  UNL1       -0.5007
      4 O          10.3984    1.0746    0.0000 O.3     1  UNL1       -0.5033
      5 O           4.3198    3.6092    0.0000 O.3     1  UNL1       -0.5058
      6 O           6.0682    3.5746    0.0000 O.2     1  UNL1       -0.2830
      7 O           2.5381    0.5505    0.0000 O.3     1  UNL1       -0.5065
      8 C           7.8003    0.5746    0.0000 C.ar    1  UNL1        0.0250
      9 C           8.6663   -0.9254    0.0000 C.ar    1  UNL1        0.0021
     10 C           6.9343    1.0746    0.0000 C.ar    1  UNL1        0.1807
     11 C           7.8003   -0.4254    0.0000 C.ar    1  UNL1       -0.0438
     12 C           8.6663   -1.9254    0.0000 C.3     1  UNL1       -0.0057
     13 C           5.2022    2.0746    0.0000 C.ar    1  UNL1        0.1092
     14 C           5.2022    1.0746    0.0000 C.ar    1  UNL1        0.1465
     15 C           9.5323   -0.4254    0.0000 C.ar    1  UNL1        0.1618
     16 C           8.6663    1.0746    0.0000 C.ar    1  UNL1       -0.0057
     17 C           6.9343    2.0746    0.0000 C.ar    1  UNL1        0.2082
     18 C           9.5323    0.5746    0.0000 C.ar    1  UNL1        0.1592
     19 C           6.0682    2.5746    0.0000 C.ar    1  UNL1        0.2379
     20 C           7.8003   -2.4254    0.0000 C.2     1  UNL1       -0.0809
     21 C           4.3083    2.6093    0.0000 C.ar    1  UNL1        0.1348
     22 C           4.3083    0.5399    0.0000 C.ar    1  UNL1        0.0231
     23 C           7.8003   -3.4254    0.0000 C.2     1  UNL1       -0.0793
     24 C           3.4022    1.0538    0.0000 C.ar    1  UNL1        0.1239
     25 C           3.4022    2.0954    0.0000 C.ar    1  UNL1        0.0223
     26 C           6.9343   -3.9254    0.0000 C.3     1  UNL1       -0.0440
     27 C           8.6663   -3.9254    0.0000 C.3     1  UNL1       -0.0440
     28 H           7.2634   -0.7354    0.0000 H       1  UNL1        0.0629
     29 H           8.8784   -2.5080    0.0000 H       1  UNL1        0.0357
     30 H           9.2769   -1.8177    0.0000 H       1  UNL1        0.0357
     31 H           8.6663    1.6946    0.0000 H       1  UNL1        0.0662
     32 H           7.2634   -2.1154    0.0000 H       1  UNL1        0.0575
     33 H           4.3154   -0.0800    0.0000 H       1  UNL1        0.0691
     34 H           2.8665    2.4075    0.0000 H       1  UNL1        0.0691
     35 H           6.6243   -3.3885    0.0000 H       1  UNL1        0.0274
     36 H           8.3563   -4.4623    0.0000 H       1  UNL1        0.0274
     37 H           9.2033   -4.2354    0.0000 H       1  UNL1        0.0274
     38 H           8.9763   -3.3885    0.0000 H       1  UNL1        0.0274
     39 H           6.3973   -4.2354    0.0000 H       1  UNL1        0.0274
     40 H           7.2443   -4.4623    0.0000 H       1  UNL1        0.0274
     41 H          10.9353   -0.6154    0.0000 H       1  UNL1        0.2923
     42 H           7.8003    3.1946    0.0000 H       1  UNL1        0.2924
     43 H          10.3984    1.6946    0.0000 H       1  UNL1        0.2923
     44 H           3.7865    3.9254    0.0000 H       1  UNL1        0.2922
     45 H           2.0000    0.8584    0.0000 H       1  UNL1        0.2921
@<TRIPOS>BOND
     1     1    10   ar
     2     1    14   ar
     3     2    15    1
     4     2    41    1
     5     3    17    1
     6     3    42    1
     7     4    18    1
     8     4    43    1
     9     5    21    1
    10     5    44    1
    11     6    19    2
    12     7    24    1
    13     7    45    1
    14     8    10    1
    15     8    11   ar
    16     8    16   ar
    17     9    11   ar
    18     9    12    1
    19     9    15   ar
    20    10    17   ar
    21    11    28    1
    22    12    20    1
    23    12    29    1
    24    12    30    1
    25    13    14   ar
    26    13    19   ar
    27    13    21   ar
    28    14    22   ar
    29    15    18   ar
    30    16    18   ar
    31    16    31    1
    32    17    19   ar
    33    20    23    2
    34    20    32    1
    35    21    25   ar
    36    22    24   ar
    37    22    33    1
    38    23    26    1
    39    23    27    1
    40    24    25   ar
    41    25    34    1
    42    26    35    1
    43    26    39    1
    44    26    40    1
    45    27    36    1
    46    27    37    1
    47    27    38    1
