@<TRIPOS>MOLECULE
IMPHY007748
 43 47 0 0 0
SMALL
GASTEIGER

@<TRIPOS>ATOM
      1 O           8.8527   -3.0718    0.0000 O.3     1  UNL1       -0.4526
      2 O          10.2426   -2.1343    0.0000 O.3     1  UNL1       -0.4526
      3 O           1.6306    0.5925    0.0000 O.3     1  UNL1       -0.4914
      4 O           2.3646    2.5048    0.0000 O.3     1  UNL1       -0.5033
      5 N           6.8322    2.2410    0.0000 N.3     1  UNL1       -0.2909
      6 C           6.3544    0.2924    0.0000 C.3     1  UNL1        0.0403
      7 C           6.0956    1.2584    0.0000 C.3     1  UNL1        0.0403
      8 C           8.1288    0.9472    0.0000 C.3     1  UNL1       -0.0074
      9 C           5.0827   -0.5022    0.0000 C.3     1  UNL1       -0.0074
     10 C           7.5754   -0.5732    0.0000 C.ar    1  UNL1       -0.0230
     11 C           4.6639    1.0607    0.0000 C.ar    1  UNL1       -0.0230
     12 C           8.4045   -0.0140    0.0000 C.ar    1  UNL1       -0.0372
     13 C           4.3056    0.1271    0.0000 C.ar    1  UNL1       -0.0372
     14 C           7.3322    3.1070    0.0000 C.3     1  UNL1       -0.0116
     15 C           7.6321   -1.6133    0.0000 C.ar    1  UNL1       -0.0112
     16 C           9.3476   -0.4562    0.0000 C.ar    1  UNL1       -0.0126
     17 C           4.0210    1.8802    0.0000 C.ar    1  UNL1       -0.0116
     18 C           3.2794   -0.0517    0.0000 C.ar    1  UNL1       -0.0128
     19 C           8.5647   -2.0772    0.0000 C.ar    1  UNL1        0.1666
     20 C           9.4283   -1.4947    0.0000 C.ar    1  UNL1        0.1665
     21 C           2.9910    1.7252    0.0000 C.ar    1  UNL1        0.1588
     22 C           2.6177    0.7527    0.0000 C.ar    1  UNL1        0.1615
     23 C           9.8876   -3.1070    0.0000 C.3     1  UNL1        0.2332
     24 C           1.2758   -0.3425    0.0000 C.3     1  UNL1        0.0790
     25 H           6.5744   -0.5286    0.0000 H       1  UNL1        0.0516
     26 H           5.8756    2.0794    0.0000 H       1  UNL1        0.0516
     27 H           8.1339    1.5672    0.0000 H       1  UNL1        0.0332
     28 H           8.7431    1.0310    0.0000 H       1  UNL1        0.0332
     29 H           5.4673   -0.9885    0.0000 H       1  UNL1        0.0332
     30 H           4.6418   -0.9381    0.0000 H       1  UNL1        0.0332
     31 H           6.7953    3.4170    0.0000 H       1  UNL1        0.0391
     32 H           7.6422    3.6439    0.0000 H       1  UNL1        0.0391
     33 H           7.8691    2.7970    0.0000 H       1  UNL1        0.0391
     34 H           7.1141   -1.9540    0.0000 H       1  UNL1        0.0659
     35 H           9.8576   -0.1036    0.0000 H       1  UNL1        0.0658
     36 H           4.2498    2.4564    0.0000 H       1  UNL1        0.0658
     37 H           3.0639   -0.6330    0.0000 H       1  UNL1        0.0658
     38 H          10.4891   -3.2572    0.0000 H       1  UNL1        0.1166
     39 H           9.8015   -3.7210    0.0000 H       1  UNL1        0.1166
     40 H           2.5890    3.0827    0.0000 H       1  UNL1        0.2923
     41 H           1.8555   -0.5624    0.0000 H       1  UNL1        0.0660
     42 H           1.0559   -0.9221    0.0000 H       1  UNL1        0.0660
     43 H           0.6961   -0.1225    0.0000 H       1  UNL1        0.0660
@<TRIPOS>BOND
     1     1    19    1
     2     1    23    1
     3     2    20    1
     4     2    23    1
     5     3    22    1
     6     3    24    1
     7     4    21    1
     8     4    40    1
     9     5     6    1
    10     5     7    1
    11     5    14    1
    12     6     9    1
    13     6    10    1
    14     6    25    1
    15     7     8    1
    16     7    11    1
    17     7    26    1
    18     8    12    1
    19     8    27    1
    20     8    28    1
    21     9    13    1
    22     9    29    1
    23     9    30    1
    24    10    12   ar
    25    10    15   ar
    26    11    13   ar
    27    11    17   ar
    28    12    16   ar
    29    13    18   ar
    30    14    31    1
    31    14    32    1
    32    14    33    1
    33    15    19   ar
    34    15    34    1
    35    16    20   ar
    36    16    35    1
    37    17    21   ar
    38    17    36    1
    39    18    22   ar
    40    18    37    1
    41    19    20   ar
    42    21    22   ar
    43    23    38    1
    44    23    39    1
    45    24    41    1
    46    24    42    1
    47    24    43    1
