@<TRIPOS>MOLECULE
IMPHY013843
 29 28 0 0 0
SMALL
GASTEIGER

@<TRIPOS>ATOM
      1 O           6.3301   -1.0950    0.0000 O.3     1  UNL1       -0.3875
      2 C           4.5981   -0.0950    0.0000 C.3     1  UNL1       -0.0444
      3 C           5.4641    0.4050    0.0000 C.3     1  UNL1       -0.0225
      4 C           3.7320    0.4050    0.0000 C.3     1  UNL1       -0.0259
      5 C           6.3301   -0.0950    0.0000 C.3     1  UNL1        0.0758
      6 C           3.7320    1.4050    0.0000 C.3     1  UNL1       -0.0590
      7 C           7.1962    0.4050    0.0000 C.2     1  UNL1       -0.0516
      8 C           2.8660   -0.0950    0.0000 C.2     1  UNL1       -0.0883
      9 C           8.0622   -0.0950    0.0000 C.3     1  UNL1       -0.0416
     10 C           7.1962    1.4050    0.0000 C.2     1  UNL1       -0.0973
     11 C           2.0000    0.4050    0.0000 C.2     1  UNL1       -0.1024
     12 H           4.1996   -0.5699    0.0000 H       1  UNL1        0.0272
     13 H           4.9966   -0.5699    0.0000 H       1  UNL1        0.0272
     14 H           5.8626    0.8799    0.0000 H       1  UNL1        0.0293
     15 H           5.0656    0.8799    0.0000 H       1  UNL1        0.0293
     16 H           4.2690    0.7150    0.0000 H       1  UNL1        0.0340
     17 H           6.8671   -0.4050    0.0000 H       1  UNL1        0.0640
     18 H           4.3520    1.4050    0.0000 H       1  UNL1        0.0235
     19 H           3.7320    2.0250    0.0000 H       1  UNL1        0.0235
     20 H           3.1120    1.4050    0.0000 H       1  UNL1        0.0235
     21 H           2.8660   -0.7150    0.0000 H       1  UNL1        0.0569
     22 H           7.7522   -0.6319    0.0000 H       1  UNL1        0.0275
     23 H           8.5991   -0.4050    0.0000 H       1  UNL1        0.0275
     24 H           8.3722    0.4419    0.0000 H       1  UNL1        0.0275
     25 H           5.7932   -1.4050    0.0000 H       1  UNL1        0.2102
     26 H           7.7331    1.7150    0.0000 H       1  UNL1        0.0535
     27 H           6.6592    1.7150    0.0000 H       1  UNL1        0.0535
     28 H           2.0000    1.0250    0.0000 H       1  UNL1        0.0532
     29 H           1.4631    0.0950    0.0000 H       1  UNL1        0.0532
@<TRIPOS>BOND
     1     1     5    1
     2     1    25    1
     3     2     3    1
     4     2     4    1
     5     2    12    1
     6     2    13    1
     7     3     5    1
     8     3    14    1
     9     3    15    1
    10     4     6    1
    11     4     8    1
    12     4    16    1
    13     5     7    1
    14     5    17    1
    15     6    18    1
    16     6    19    1
    17     6    20    1
    18     7     9    1
    19     7    10    2
    20     8    11    2
    21     8    21    1
    22     9    22    1
    23     9    23    1
    24     9    24    1
    25    10    26    1
    26    10    27    1
    27    11    28    1
    28    11    29    1
