@<TRIPOS>MOLECULE
IMPHY017393
 32 32 0 0 0
SMALL
GASTEIGER

@<TRIPOS>ATOM
      1 O           3.7320    2.9330    0.0000 O.2     1  UNL1       -0.2930
      2 C           3.7320   -2.0670    0.0000 C.3     1  UNL1       -0.0129
      3 C           2.8660   -1.5670    0.0000 C.3     1  UNL1       -0.0225
      4 C           2.8660   -0.5670    0.0000 C.2     1  UNL1       -0.0647
      5 C           4.5981   -1.5670    0.0000 C.2     1  UNL1       -0.0775
      6 C           3.2320   -2.9330    0.0000 C.3     1  UNL1       -0.0560
      7 C           4.2320   -2.9330    0.0000 C.3     1  UNL1       -0.0560
      8 C           3.7320   -0.0670    0.0000 C.2     1  UNL1       -0.0262
      9 C           4.5981   -0.5670    0.0000 C.2     1  UNL1       -0.0580
     10 C           2.0000   -0.0670    0.0000 C.3     1  UNL1       -0.0429
     11 C           3.7320    0.9330    0.0000 C.2     1  UNL1       -0.0514
     12 C           4.5981    1.4330    0.0000 C.2     1  UNL1       -0.0189
     13 C           4.5981    2.4330    0.0000 C.2     1  UNL1        0.1531
     14 C           5.4641    2.9330    0.0000 C.3     1  UNL1       -0.0020
     15 H           2.2554   -1.4593    0.0000 H       1  UNL1        0.0318
     16 H           2.6540   -2.1496    0.0000 H       1  UNL1        0.0318
     17 H           5.1350   -1.8770    0.0000 H       1  UNL1        0.0578
     18 H           2.6951   -2.6230    0.0000 H       1  UNL1        0.0238
     19 H           2.9220   -3.4700    0.0000 H       1  UNL1        0.0238
     20 H           3.7690   -3.2430    0.0000 H       1  UNL1        0.0238
     21 H           3.6951   -3.2430    0.0000 H       1  UNL1        0.0238
     22 H           4.5420   -3.4700    0.0000 H       1  UNL1        0.0238
     23 H           4.7690   -2.6230    0.0000 H       1  UNL1        0.0238
     24 H           5.1350   -0.2570    0.0000 H       1  UNL1        0.0620
     25 H           2.3100    0.4699    0.0000 H       1  UNL1        0.0275
     26 H           1.4631    0.2430    0.0000 H       1  UNL1        0.0275
     27 H           1.6900   -0.6039    0.0000 H       1  UNL1        0.0275
     28 H           3.1951    1.2430    0.0000 H       1  UNL1        0.0624
     29 H           5.1350    1.1230    0.0000 H       1  UNL1        0.0652
     30 H           5.7741    2.3961    0.0000 H       1  UNL1        0.0309
     31 H           6.0010    3.2430    0.0000 H       1  UNL1        0.0309
     32 H           5.1541    3.4700    0.0000 H       1  UNL1        0.0309
@<TRIPOS>BOND
     1     1    13    2
     2     2     3    1
     3     2     5    1
     4     2     6    1
     5     2     7    1
     6     3     4    1
     7     3    15    1
     8     3    16    1
     9     4     8    2
    10     4    10    1
    11     5     9    2
    12     5    17    1
    13     6    18    1
    14     6    19    1
    15     6    20    1
    16     7    21    1
    17     7    22    1
    18     7    23    1
    19     8     9    1
    20     8    11    1
    21     9    24    1
    22    10    25    1
    23    10    26    1
    24    10    27    1
    25    11    12    2
    26    11    28    1
    27    12    13    1
    28    12    29    1
    29    13    14    1
    30    14    30    1
    31    14    31    1
    32    14    32    1
