@<TRIPOS>MOLECULE
IMPHY009585
 9 9 0 0 0
SMALL
GASTEIGER

@<TRIPOS>ATOM
      1 O           3.0878   -1.4571    0.0000 O.2     1  UNL1       -0.3592
      2 O           2.0000    0.8907    0.0000 O.3     1  UNL1       -0.5026
      3 N           3.8968   -0.8693    0.0000 N.ar    1  UNL1       -0.0830
      4 C           2.5878    0.0817    0.0000 C.ar    1  UNL1        0.1758
      5 C           2.2788   -0.8693    0.0000 C.ar    1  UNL1        0.1655
      6 C           3.5878    0.0817    0.0000 C.ar    1  UNL1        0.1115
      7 H           1.6891   -1.0609    0.0000 H       1  UNL1        0.1096
      8 H           3.9522    0.5833    0.0000 H       1  UNL1        0.0902
      9 H           2.2522    1.4571    0.0000 H       1  UNL1        0.2923
@<TRIPOS>BOND
     1     1     3   ar
     2     1     5   ar
     3     2     4    1
     4     2     9    1
     5     3     6   ar
     6     4     5   ar
     7     4     6   ar
     8     5     7    1
     9     6     8    1
