@<TRIPOS>MOLECULE
IMPHY015705
 45 46 0 0 0
SMALL
GASTEIGER

@<TRIPOS>ATOM
      1 O           4.2690    0.5000    0.0000 O.3     1  UNL1       -0.3400
      2 O           6.0010    0.5000    0.0000 O.3     1  UNL1       -0.3174
      3 O           6.0010   -0.5000    0.0000 O.3     1  UNL1       -0.3865
      4 O           2.5369   -0.5000    0.0000 O.3     1  UNL1       -0.3865
      5 O           6.0010   -2.5000    0.0000 O.3     1  UNL1       -0.3865
      6 O           2.5369   -2.5000    0.0000 O.3     1  UNL1       -0.3865
      7 O           4.2690   -3.5000    0.0000 O.3     1  UNL1       -0.3865
      8 O           4.2690    2.5000    0.0000 O.3     1  UNL1       -0.3841
      9 O           6.0010    3.5000    0.0000 O.3     1  UNL1       -0.3863
     10 O           7.7331    0.5000    0.0000 O.3     1  UNL1       -0.3519
     11 O           7.7331    2.5000    0.0000 O.3     1  UNL1       -0.3841
     12 C           4.2690   -0.5000    0.0000 C.3     1  UNL1        0.1183
     13 C           5.1350   -1.0000    0.0000 C.3     1  UNL1        0.1122
     14 C           3.4030   -1.0000    0.0000 C.3     1  UNL1        0.1122
     15 C           5.1350   -2.0000    0.0000 C.3     1  UNL1        0.1118
     16 C           3.4030   -2.0000    0.0000 C.3     1  UNL1        0.1118
     17 C           4.2690   -2.5000    0.0000 C.3     1  UNL1        0.1118
     18 C           5.1350    1.0000    0.0000 C.3     1  UNL1        0.1909
     19 C           5.1350    2.0000    0.0000 C.3     1  UNL1        0.1343
     20 C           6.0010    2.5000    0.0000 C.3     1  UNL1        0.1163
     21 C           6.8671    2.0000    0.0000 C.3     1  UNL1        0.1343
     22 C           6.8671    1.0000    0.0000 C.3     1  UNL1        0.1901
     23 C           7.7331   -0.5000    0.0000 C.3     1  UNL1        0.0395
     24 H           4.8059   -0.1900    0.0000 H       1  UNL1        0.0651
     25 H           5.6720   -1.3100    0.0000 H       1  UNL1        0.0647
     26 H           3.4030   -0.3800    0.0000 H       1  UNL1        0.0647
     27 H           5.1350   -2.6200    0.0000 H       1  UNL1        0.0647
     28 H           3.4030   -2.6200    0.0000 H       1  UNL1        0.0647
     29 H           3.7320   -2.8100    0.0000 H       1  UNL1        0.0647
     30 H           5.1350    0.3800    0.0000 H       1  UNL1        0.0938
     31 H           5.1350    2.6200    0.0000 H       1  UNL1        0.0671
     32 H           5.4641    2.8100    0.0000 H       1  UNL1        0.0648
     33 H           6.8671    2.6200    0.0000 H       1  UNL1        0.0671
     34 H           7.4040    1.3100    0.0000 H       1  UNL1        0.0938
     35 H           6.5380   -0.8100    0.0000 H       1  UNL1        0.2100
     36 H           2.0000   -0.8100    0.0000 H       1  UNL1        0.2100
     37 H           6.0010   -3.1200    0.0000 H       1  UNL1        0.2100
     38 H           2.5369   -3.1200    0.0000 H       1  UNL1        0.2100
     39 H           3.7320   -3.8100    0.0000 H       1  UNL1        0.2100
     40 H           4.2690    3.1200    0.0000 H       1  UNL1        0.2101
     41 H           6.5380    3.8100    0.0000 H       1  UNL1        0.2100
     42 H           8.2700    2.1900    0.0000 H       1  UNL1        0.2101
     43 H           7.1131   -0.5000    0.0000 H       1  UNL1        0.0525
     44 H           7.7331   -1.1200    0.0000 H       1  UNL1        0.0525
     45 H           8.3531   -0.5000    0.0000 H       1  UNL1        0.0525
@<TRIPOS>BOND
     1     1    12    1
     2    18     1    1
     3     2    18    1
     4     2    22    1
     5    13     3    1
     6     3    35    1
     7    14     4    1
     8     4    36    1
     9    15     5    1
    10     5    37    1
    11    16     6    1
    12     6    38    1
    13     7    17    1
    14     7    39    1
    15    19     8    1
    16     8    40    1
    17    20     9    1
    18     9    41    1
    19    22    10    1
    20    10    23    1
    21    21    11    1
    22    11    42    1
    23    12    13    1
    24    12    14    1
    25    12    24    1
    26    13    15    1
    27    13    25    1
    28    14    16    1
    29    14    26    1
    30    15    17    1
    31    15    27    1
    32    16    17    1
    33    16    28    1
    34    17    29    1
    35    18    19    1
    36    18    30    1
    37    19    20    1
    38    19    31    1
    39    20    21    1
    40    20    32    1
    41    21    22    1
    42    21    33    1
    43    22    34    1
    44    23    43    1
    45    23    44    1
    46    23    45    1
