@<TRIPOS>MOLECULE
IMPHY000004
 24 25 0 0 0
SMALL
GASTEIGER

@<TRIPOS>ATOM
      1 C           4.5981   -0.0173    0.0000 C.ar    1  UNL1       -0.0150
      2 C           4.5981    0.9827    0.0000 C.ar    1  UNL1       -0.0174
      3 C           3.7320   -0.5173    0.0000 C.ar    1  UNL1       -0.0425
      4 C           2.8660    0.9827    0.0000 C.ar    1  UNL1       -0.0496
      5 C           3.7320    1.4827    0.0000 C.ar    1  UNL1       -0.0511
      6 C           2.8660   -0.0173    0.0000 C.ar    1  UNL1       -0.0553
      7 C           5.4920   -0.5520    0.0000 C.ar    1  UNL1       -0.0538
      8 C           5.4920    1.5173    0.0000 C.ar    1  UNL1       -0.0540
      9 C           3.7320   -1.5173    0.0000 C.3     1  UNL1       -0.0391
     10 C           2.0000    1.4827    0.0000 C.3     1  UNL1       -0.0397
     11 C           6.3981   -0.0381    0.0000 C.ar    1  UNL1       -0.0612
     12 C           6.3981    1.0035    0.0000 C.ar    1  UNL1       -0.0612
     13 H           3.7320    2.1027    0.0000 H       1  UNL1        0.0626
     14 H           2.3291   -0.3273    0.0000 H       1  UNL1        0.0623
     15 H           5.4848   -1.1720    0.0000 H       1  UNL1        0.0624
     16 H           5.4848    2.1373    0.0000 H       1  UNL1        0.0624
     17 H           3.1120   -1.5173    0.0000 H       1  UNL1        0.0278
     18 H           3.7320   -2.1373    0.0000 H       1  UNL1        0.0278
     19 H           4.3520   -1.5173    0.0000 H       1  UNL1        0.0278
     20 H           2.3100    2.0196    0.0000 H       1  UNL1        0.0278
     21 H           1.4631    1.7927    0.0000 H       1  UNL1        0.0278
     22 H           1.6900    0.9457    0.0000 H       1  UNL1        0.0278
     23 H           6.9338   -0.3502    0.0000 H       1  UNL1        0.0618
     24 H           6.9338    1.3156    0.0000 H       1  UNL1        0.0618
@<TRIPOS>BOND
     1     1     2   ar
     2     1     3   ar
     3     1     7   ar
     4     2     5   ar
     5     2     8   ar
     6     3     6   ar
     7     3     9    1
     8     4     5   ar
     9     4     6   ar
    10     4    10    1
    11     5    13    1
    12     6    14    1
    13     7    11   ar
    14     7    15    1
    15     8    12   ar
    16     8    16    1
    17     9    17    1
    18     9    18    1
    19     9    19    1
    20    10    20    1
    21    10    21    1
    22    10    22    1
    23    11    12   ar
    24    11    23    1
    25    12    24    1
