@<TRIPOS>MOLECULE
IMPHY017897
 28 27 0 0 0
SMALL
GASTEIGER

@<TRIPOS>ATOM
      1 S           4.5981    0.2500    0.0000 S.3     1  UNL1       -0.0898
      2 S           5.4641   -0.2500    0.0000 S.3     1  UNL1       -0.0898
      3 C           3.7320   -0.2500    0.0000 C.3     1  UNL1        0.0124
      4 C           6.3301    0.2500    0.0000 C.3     1  UNL1        0.0124
      5 C           2.8660    0.2500    0.0000 C.3     1  UNL1       -0.0435
      6 C           7.1962   -0.2500    0.0000 C.3     1  UNL1       -0.0435
      7 C           3.7320   -1.2500    0.0000 C.3     1  UNL1       -0.0525
      8 C           6.3301    1.2500    0.0000 C.3     1  UNL1       -0.0525
      9 C           2.0000   -0.2500    0.0000 C.3     1  UNL1       -0.0643
     10 C           8.0622    0.2500    0.0000 C.3     1  UNL1       -0.0643
     11 H           4.2690   -0.5600    0.0000 H       1  UNL1        0.0417
     12 H           5.7932    0.5600    0.0000 H       1  UNL1        0.0417
     13 H           3.2646    0.7249    0.0000 H       1  UNL1        0.0273
     14 H           2.4675    0.7249    0.0000 H       1  UNL1        0.0273
     15 H           6.7976   -0.7249    0.0000 H       1  UNL1        0.0273
     16 H           7.5947   -0.7249    0.0000 H       1  UNL1        0.0273
     17 H           3.1120   -1.2500    0.0000 H       1  UNL1        0.0241
     18 H           3.7320   -1.8700    0.0000 H       1  UNL1        0.0241
     19 H           4.3520   -1.2500    0.0000 H       1  UNL1        0.0241
     20 H           6.9501    1.2500    0.0000 H       1  UNL1        0.0241
     21 H           6.3301    1.8700    0.0000 H       1  UNL1        0.0241
     22 H           5.7101    1.2500    0.0000 H       1  UNL1        0.0241
     23 H           1.6900    0.2869    0.0000 H       1  UNL1        0.0230
     24 H           1.4631   -0.5600    0.0000 H       1  UNL1        0.0230
     25 H           2.3100   -0.7869    0.0000 H       1  UNL1        0.0230
     26 H           8.3722   -0.2869    0.0000 H       1  UNL1        0.0230
     27 H           8.5991    0.5600    0.0000 H       1  UNL1        0.0230
     28 H           7.7522    0.7869    0.0000 H       1  UNL1        0.0230
@<TRIPOS>BOND
     1     1     2    1
     2     1     3    1
     3     2     4    1
     4     3     5    1
     5     3     7    1
     6     3    11    1
     7     4     6    1
     8     4     8    1
     9     4    12    1
    10     5     9    1
    11     5    13    1
    12     5    14    1
    13     6    10    1
    14     6    15    1
    15     6    16    1
    16     7    17    1
    17     7    18    1
    18     7    19    1
    19     8    20    1
    20     8    21    1
    21     8    22    1
    22     9    23    1
    23     9    24    1
    24     9    25    1
    25    10    26    1
    26    10    27    1
    27    10    28    1
