@<TRIPOS>MOLECULE
IMPHY011457
 41 42 0 0 0
SMALL
GASTEIGER

@<TRIPOS>ATOM
      1 O           7.3479    0.7162    0.0000 O.2     1  UNL1       -0.2971
      2 O           3.0000   -2.1036    0.0000 O.2     1  UNL1       -0.2971
      3 C           5.0000   -0.3716    0.0000 C.3     1  UNL1       -0.0099
      4 C           5.5878    0.4374    0.0000 C.3     1  UNL1        0.0261
      5 C           5.5878   -1.1806    0.0000 C.3     1  UNL1       -0.0305
      6 C           4.5000    0.4945    0.0000 C.3     1  UNL1       -0.0454
      7 C           4.5000   -1.2376    0.0000 C.3     1  UNL1        0.0126
      8 C           6.5388   -0.8716    0.0000 C.3     1  UNL1        0.0092
      9 C           6.5388    0.1284    0.0000 C.2     1  UNL1        0.1375
     10 C           5.2788    1.3885    0.0000 C.3     1  UNL1       -0.0367
     11 C           3.5000    0.4945    0.0000 C.3     1  UNL1       -0.0432
     12 C           3.0000   -0.3716    0.0000 C.3     1  UNL1        0.0147
     13 C           3.5000   -1.2376    0.0000 C.2     1  UNL1        0.1367
     14 C           5.2788   -2.1316    0.0000 C.3     1  UNL1       -0.0615
     15 C           5.9479    2.1316    0.0000 C.3     1  UNL1       -0.0620
     16 C           4.3006    1.5964    0.0000 C.3     1  UNL1       -0.0620
     17 C           2.0000   -0.3716    0.0000 C.3     1  UNL1       -0.0557
     18 H           6.0262    0.8759    0.0000 H       1  UNL1        0.0385
     19 H           6.0262   -1.6190    0.0000 H       1  UNL1        0.0308
     20 H           5.0826    0.7065    0.0000 H       1  UNL1        0.0271
     21 H           4.3923    1.1050    0.0000 H       1  UNL1        0.0271
     22 H           4.3923   -1.8482    0.0000 H       1  UNL1        0.0347
     23 H           5.0826   -1.4497    0.0000 H       1  UNL1        0.0347
     24 H           6.6678   -1.4780    0.0000 H       1  UNL1        0.0344
     25 H           7.1554   -0.8068    0.0000 H       1  UNL1        0.0344
     26 H           4.8639    0.9278    0.0000 H       1  UNL1        0.0302
     27 H           3.6077    1.1050    0.0000 H       1  UNL1        0.0272
     28 H           2.9174    0.7065    0.0000 H       1  UNL1        0.0272
     29 H           2.6900    0.1654    0.0000 H       1  UNL1        0.0375
     30 H           4.6891   -1.9401    0.0000 H       1  UNL1        0.0233
     31 H           5.0872   -2.7213    0.0000 H       1  UNL1        0.0233
     32 H           5.8684   -2.3232    0.0000 H       1  UNL1        0.0233
     33 H           6.4086    1.7168    0.0000 H       1  UNL1        0.0233
     34 H           6.3628    2.5924    0.0000 H       1  UNL1        0.0233
     35 H           5.4872    2.5465    0.0000 H       1  UNL1        0.0233
     36 H           4.4295    2.2029    0.0000 H       1  UNL1        0.0233
     37 H           3.6942    1.7253    0.0000 H       1  UNL1        0.0233
     38 H           4.1717    0.9900    0.0000 H       1  UNL1        0.0233
     39 H           2.0000    0.2484    0.0000 H       1  UNL1        0.0236
     40 H           1.3800   -0.3716    0.0000 H       1  UNL1        0.0236
     41 H           2.0000   -0.9916    0.0000 H       1  UNL1        0.0236
@<TRIPOS>BOND
     1     1     9    2
     2     2    13    2
     3     3     4    1
     4     3     5    1
     5     3     6    1
     6     3     7    1
     7     4     9    1
     8     4    10    1
     9     4    18    1
    10     5     8    1
    11     5    14    1
    12     5    19    1
    13     6    11    1
    14     6    20    1
    15     6    21    1
    16     7    13    1
    17     7    22    1
    18     7    23    1
    19     8     9    1
    20     8    24    1
    21     8    25    1
    22    10    15    1
    23    10    16    1
    24    10    26    1
    25    11    12    1
    26    11    27    1
    27    11    28    1
    28    12    13    1
    29    12    17    1
    30    12    29    1
    31    14    30    1
    32    14    31    1
    33    14    32    1
    34    15    33    1
    35    15    34    1
    36    15    35    1
    37    16    36    1
    38    16    37    1
    39    16    38    1
    40    17    39    1
    41    17    40    1
    42    17    41    1
