@<TRIPOS>MOLECULE
IMPHY005899
 48 47 0 0 0
SMALL
GASTEIGER

@<TRIPOS>ATOM
      1 O           3.7320    1.1900    0.0000 O.3     1  UNL1       -0.4648
      2 O           2.8660   -0.3100    0.0000 O.2     1  UNL1       -0.2512
      3 C           8.0622    0.6900    0.0000 C.3     1  UNL1       -0.0531
      4 C           8.9282    1.1900    0.0000 C.3     1  UNL1       -0.0530
      5 C           7.1962    1.1900    0.0000 C.3     1  UNL1       -0.0530
      6 C           9.7942    0.6900    0.0000 C.3     1  UNL1       -0.0528
      7 C           6.3301    0.6900    0.0000 C.3     1  UNL1       -0.0500
      8 C          10.6603    1.1900    0.0000 C.3     1  UNL1       -0.0496
      9 C           5.4641    1.1900    0.0000 C.3     1  UNL1       -0.0185
     10 C          11.5263    0.6900    0.0000 C.3     1  UNL1       -0.0348
     11 C           4.5981    0.6900    0.0000 C.3     1  UNL1        0.0924
     12 C          12.3923    1.1900    0.0000 C.2     1  UNL1       -0.0879
     13 C          13.2583    0.6900    0.0000 C.2     1  UNL1       -0.0879
     14 C          13.2583   -0.3100    0.0000 C.3     1  UNL1       -0.0350
     15 C          14.1244   -0.8100    0.0000 C.3     1  UNL1       -0.0525
     16 C          14.1244   -1.8100    0.0000 C.3     1  UNL1       -0.0650
     17 C           2.8660    0.6900    0.0000 C.2     1  UNL1        0.3039
     18 C           2.0000    1.1900    0.0000 C.3     1  UNL1        0.0332
     19 H           7.6636    0.2151    0.0000 H       1  UNL1        0.0265
     20 H           8.4607    0.2151    0.0000 H       1  UNL1        0.0265
     21 H           9.3267    1.6650    0.0000 H       1  UNL1        0.0265
     22 H           8.5297    1.6650    0.0000 H       1  UNL1        0.0265
     23 H           7.5947    1.6650    0.0000 H       1  UNL1        0.0265
     24 H           6.7976    1.6650    0.0000 H       1  UNL1        0.0265
     25 H           9.3957    0.2151    0.0000 H       1  UNL1        0.0265
     26 H          10.1928    0.2151    0.0000 H       1  UNL1        0.0265
     27 H           5.9316    0.2151    0.0000 H       1  UNL1        0.0266
     28 H           6.7287    0.2151    0.0000 H       1  UNL1        0.0266
     29 H          11.0588    1.6650    0.0000 H       1  UNL1        0.0268
     30 H          10.2617    1.6650    0.0000 H       1  UNL1        0.0268
     31 H           5.8626    1.6650    0.0000 H       1  UNL1        0.0298
     32 H           5.0656    1.6650    0.0000 H       1  UNL1        0.0298
     33 H          11.1278    0.2151    0.0000 H       1  UNL1        0.0307
     34 H          11.9248    0.2151    0.0000 H       1  UNL1        0.0307
     35 H           4.1996    0.2151    0.0000 H       1  UNL1        0.0697
     36 H           4.9966    0.2151    0.0000 H       1  UNL1        0.0697
     37 H          12.3923    1.8100    0.0000 H       1  UNL1        0.0569
     38 H          13.7953    1.0000    0.0000 H       1  UNL1        0.0569
     39 H          12.6477   -0.2023    0.0000 H       1  UNL1        0.0307
     40 H          13.0463   -0.8926    0.0000 H       1  UNL1        0.0307
     41 H          14.7349   -0.9177    0.0000 H       1  UNL1        0.0266
     42 H          14.3364   -0.2274    0.0000 H       1  UNL1        0.0266
     43 H          13.5044   -1.8100    0.0000 H       1  UNL1        0.0230
     44 H          14.1244   -2.4300    0.0000 H       1  UNL1        0.0230
     45 H          14.7444   -1.8100    0.0000 H       1  UNL1        0.0230
     46 H           2.3100    1.7269    0.0000 H       1  UNL1        0.0342
     47 H           1.4631    1.5000    0.0000 H       1  UNL1        0.0342
     48 H           1.6900    0.6531    0.0000 H       1  UNL1        0.0342
@<TRIPOS>BOND
     1     1    11    1
     2     1    17    1
     3     2    17    2
     4     3     4    1
     5     3     5    1
     6     3    19    1
     7     3    20    1
     8     4     6    1
     9     4    21    1
    10     4    22    1
    11     5     7    1
    12     5    23    1
    13     5    24    1
    14     6     8    1
    15     6    25    1
    16     6    26    1
    17     7     9    1
    18     7    27    1
    19     7    28    1
    20     8    10    1
    21     8    29    1
    22     8    30    1
    23     9    11    1
    24     9    31    1
    25     9    32    1
    26    10    12    1
    27    10    33    1
    28    10    34    1
    29    11    35    1
    30    11    36    1
    31    12    13    2
    32    12    37    1
    33    13    14    1
    34    13    38    1
    35    14    15    1
    36    14    39    1
    37    14    40    1
    38    15    16    1
    39    15    41    1
    40    15    42    1
    41    16    43    1
    42    16    44    1
    43    16    45    1
    44    17    18    1
    45    18    46    1
    46    18    47    1
    47    18    48    1
