@<TRIPOS>MOLECULE
IMPHY006386
 59 63 0 0 0
SMALL
GASTEIGER

@<TRIPOS>ATOM
      1 O           7.7848    2.8479    0.0000 O.3     1  UNL1       -0.4571
      2 O           9.5454    3.1236    0.0000 O.2     1  UNL1       -0.2456
      3 C           5.6591   -1.5254    0.0000 C.3     1  UNL1       -0.0343
      4 C           4.7931   -1.0254    0.0000 C.3     1  UNL1       -0.0323
      5 C           6.5251   -1.0254    0.0000 C.3     1  UNL1       -0.0320
      6 C           6.5251   -0.0254    0.0000 C.3     1  UNL1       -0.0223
      7 C           3.8831   -1.5323    0.0000 C.3     1  UNL1       -0.0261
      8 C           3.8751   -2.5739    0.0000 C.3     1  UNL1       -0.0354
      9 C           4.7931   -0.0254    0.0000 C.3     1  UNL1       -0.0489
     10 C           5.6591    0.4746    0.0000 C.3     1  UNL1       -0.0465
     11 C           7.4714    0.2793    0.0000 C.3     1  UNL1       -0.0106
     12 C           5.6752   -2.5669    0.0000 C.3     1  UNL1       -0.0494
     13 C           7.4714   -1.3302    0.0000 C.3     1  UNL1       -0.0489
     14 C           4.7771   -3.0947    0.0000 C.3     1  UNL1       -0.0494
     15 C           8.0550   -0.5254    0.0000 C.3     1  UNL1       -0.0456
     16 C           2.9562   -0.9682    0.0000 C.3     1  UNL1       -0.0471
     17 C           2.9396   -3.1236    0.0000 C.3     1  UNL1       -0.0497
     18 C           6.5251    0.9746    0.0000 C.3     1  UNL1       -0.0588
     19 C           3.8908   -0.5323    0.0000 C.3     1  UNL1       -0.0590
     20 C           2.0084   -1.4961    0.0000 C.3     1  UNL1       -0.0525
     21 C           2.0000   -2.5811    0.0000 C.3     1  UNL1       -0.0528
     22 C           7.7820    1.2298    0.0000 C.2     1  UNL1       -0.0223
     23 C           7.1956    2.0399    0.0000 C.3     1  UNL1        0.1147
     24 C           8.7336    1.5372    0.0000 C.2     1  UNL1        0.0252
     25 C           8.7353    2.5372    0.0000 C.2     1  UNL1        0.3323
     26 H           6.3985   -1.9447    0.0000 H       1  UNL1        0.0306
     27 H           5.5292   -0.6004    0.0000 H       1  UNL1        0.0309
     28 H           6.6151   -1.8706    0.0000 H       1  UNL1        0.0309
     29 H           3.8774   -3.1939    0.0000 H       1  UNL1        0.0306
     30 H           4.5810    0.5572    0.0000 H       1  UNL1        0.0268
     31 H           4.1825   -0.1331    0.0000 H       1  UNL1        0.0268
     32 H           6.0576    0.9495    0.0000 H       1  UNL1        0.0271
     33 H           5.2606    0.9495    0.0000 H       1  UNL1        0.0271
     34 H           8.0838    0.3755    0.0000 H       1  UNL1        0.0352
     35 H           5.8932   -3.1473    0.0000 H       1  UNL1        0.0268
     36 H           6.2843   -2.4514    0.0000 H       1  UNL1        0.0268
     37 H           7.2203   -1.8971    0.0000 H       1  UNL1        0.0268
     38 H           8.0087   -1.6394    0.0000 H       1  UNL1        0.0268
     39 H           4.3798   -3.5706    0.0000 H       1  UNL1        0.0268
     40 H           5.1781   -3.5676    0.0000 H       1  UNL1        0.0268
     41 H           8.5158   -0.9401    0.0000 H       1  UNL1        0.0271
     42 H           8.5158   -0.1107    0.0000 H       1  UNL1        0.0271
     43 H           3.3645   -0.5015    0.0000 H       1  UNL1        0.0271
     44 H           2.5663   -0.4861    0.0000 H       1  UNL1        0.0271
     45 H           2.5423   -3.5996    0.0000 H       1  UNL1        0.0268
     46 H           3.3406   -3.5965    0.0000 H       1  UNL1        0.0268
     47 H           7.1451    0.9746    0.0000 H       1  UNL1        0.0235
     48 H           6.5251    1.5946    0.0000 H       1  UNL1        0.0235
     49 H           5.9051    0.9746    0.0000 H       1  UNL1        0.0235
     50 H           4.5108   -0.5371    0.0000 H       1  UNL1        0.0235
     51 H           3.8956    0.0877    0.0000 H       1  UNL1        0.0235
     52 H           3.2708   -0.5275    0.0000 H       1  UNL1        0.0235
     53 H           1.8038   -0.9108    0.0000 H       1  UNL1        0.0265
     54 H           1.3967   -1.5975    0.0000 H       1  UNL1        0.0265
     55 H           1.3900   -2.4703    0.0000 H       1  UNL1        0.0265
     56 H           1.7864   -3.1632    0.0000 H       1  UNL1        0.0265
     57 H           6.7356    2.4555    0.0000 H       1  UNL1        0.0746
     58 H           6.7342    1.6258    0.0000 H       1  UNL1        0.0746
     59 H           9.2346    1.1719    0.0000 H       1  UNL1        0.0689
@<TRIPOS>BOND
     1     1    23    1
     2     1    25    1
     3     2    25    2
     4     3     4    1
     5     3     5    1
     6     3    12    1
     7     3    26    1
     8     4     7    1
     9     4     9    1
    10     4    27    1
    11     5     6    1
    12     5    13    1
    13     5    28    1
    14     6    10    1
    15     6    11    1
    16     6    18    1
    17     7     8    1
    18     7    16    1
    19     7    19    1
    20     8    14    1
    21     8    17    1
    22     8    29    1
    23     9    10    1
    24     9    30    1
    25     9    31    1
    26    10    32    1
    27    10    33    1
    28    11    15    1
    29    11    22    1
    30    11    34    1
    31    12    14    1
    32    12    35    1
    33    12    36    1
    34    13    15    1
    35    13    37    1
    36    13    38    1
    37    14    39    1
    38    14    40    1
    39    15    41    1
    40    15    42    1
    41    16    20    1
    42    16    43    1
    43    16    44    1
    44    17    21    1
    45    17    45    1
    46    17    46    1
    47    18    47    1
    48    18    48    1
    49    18    49    1
    50    19    50    1
    51    19    51    1
    52    19    52    1
    53    20    21    1
    54    20    53    1
    55    20    54    1
    56    21    55    1
    57    21    56    1
    58    22    23    1
    59    22    24    2
    60    23    57    1
    61    23    58    1
    62    24    25    1
    63    24    59    1
