@<TRIPOS>MOLECULE
IMPHY001529
 27 26 0 0 0
SMALL
GASTEIGER

@<TRIPOS>ATOM
      1 O           5.4641   -1.0600    0.0000 O.2     1  UNL1       -0.2974
      2 O           2.0000   -0.0600    0.0000 O.2     1  UNL1       -0.3010
      3 C           7.1962   -0.0600    0.0000 C.3     1  UNL1       -0.0464
      4 C           8.0622    0.4400    0.0000 C.3     1  UNL1       -0.0529
      5 C           6.3301    0.4400    0.0000 C.3     1  UNL1        0.0058
      6 C           8.9282   -0.0600    0.0000 C.3     1  UNL1       -0.0559
      7 C           5.4641   -0.0600    0.0000 C.2     1  UNL1        0.1338
      8 C           4.5981    0.4400    0.0000 C.3     1  UNL1        0.0122
      9 C           9.7942    0.4400    0.0000 C.3     1  UNL1       -0.0653
     10 C           3.7320   -0.0600    0.0000 C.3     1  UNL1        0.0094
     11 C           2.8660    0.4400    0.0000 C.2     1  UNL1        0.1207
     12 H           6.7976   -0.5349    0.0000 H       1  UNL1        0.0269
     13 H           7.5947   -0.5349    0.0000 H       1  UNL1        0.0269
     14 H           8.4607    0.9149    0.0000 H       1  UNL1        0.0265
     15 H           7.6636    0.9149    0.0000 H       1  UNL1        0.0265
     16 H           6.7287    0.9149    0.0000 H       1  UNL1        0.0342
     17 H           5.9316    0.9149    0.0000 H       1  UNL1        0.0342
     18 H           8.5297   -0.5349    0.0000 H       1  UNL1        0.0263
     19 H           9.3267   -0.5349    0.0000 H       1  UNL1        0.0263
     20 H           4.9966    0.9149    0.0000 H       1  UNL1        0.0345
     21 H           4.1996    0.9149    0.0000 H       1  UNL1        0.0345
     22 H          10.1042   -0.0969    0.0000 H       1  UNL1        0.0230
     23 H          10.3312    0.7500    0.0000 H       1  UNL1        0.0230
     24 H           9.4842    0.9769    0.0000 H       1  UNL1        0.0230
     25 H           3.3335   -0.5349    0.0000 H       1  UNL1        0.0343
     26 H           4.1306   -0.5349    0.0000 H       1  UNL1        0.0343
     27 H           2.8660    1.0600    0.0000 H       1  UNL1        0.1026
@<TRIPOS>BOND
     1     1     7    2
     2     2    11    2
     3     3     4    1
     4     3     5    1
     5     3    12    1
     6     3    13    1
     7     4     6    1
     8     4    14    1
     9     4    15    1
    10     5     7    1
    11     5    16    1
    12     5    17    1
    13     6     9    1
    14     6    18    1
    15     6    19    1
    16     7     8    1
    17     8    10    1
    18     8    20    1
    19     8    21    1
    20     9    22    1
    21     9    23    1
    22     9    24    1
    23    10    11    1
    24    10    25    1
    25    10    26    1
    26    11    27    1
