@<TRIPOS>MOLECULE
IMPHY015261
 12 12 0 0 0
SMALL
GASTEIGER

@<TRIPOS>ATOM
      1 O           5.3122    0.4885    0.0000 O.2     1  PRO1       -0.2942
      2 N           2.8090   -0.4594    0.0000 N.ar    1  PRO1       -0.3586
      3 CA          3.6180    0.1284    0.0000 C.ar    1  PRO1        0.0789
      4 CB          3.3090    1.0794    0.0000 C.ar    1  PRO1       -0.0339
      5 CD          2.0000    0.1284    0.0000 C.ar    1  PRO1        0.0022
      6 CG          2.3090    1.0794    0.0000 C.ar    1  PRO1       -0.0437
      7 C           4.5691   -0.1807    0.0000 C.2     1  PRO1        0.1663
      8 H           2.8090   -1.0794    0.0000 H       1  PRO1        0.1654
      9 HB          3.6734    1.5810    0.0000 H       1  PRO1        0.0639
     10 HD          1.4103   -0.0632    0.0000 H       1  PRO1        0.0807
     11 HG          1.9446    1.5810    0.0000 H       1  PRO1        0.0633
     12 H           4.6980   -0.7871    0.0000 H       1  PRO1        0.1097
@<TRIPOS>BOND
     1     1     7    2
     2     2     3   ar
     3     2     5   ar
     4     2     8    1
     5     3     4   ar
     6     3     7    1
     7     4     6   ar
     8     4     9    1
     9     5     6   ar
    10     5    10    1
    11     6    11    1
    12     7    12    1
