@<TRIPOS>MOLECULE
IMPHY009840
 39 42 0 0 0
SMALL
GASTEIGER

@<TRIPOS>ATOM
      1 C           5.4772    0.5853    0.0000 C.3     1  UNL1       -0.0199
      2 C           4.9772    1.4514    0.0000 C.3     1  UNL1       -0.0281
      3 C           5.9772    1.4514    0.0000 C.3     1  UNL1       -0.0310
      4 C           5.3858   -1.1099    0.0000 C.3     1  UNL1       -0.0230
      5 C           5.4772   -0.0785    0.0000 C.3     1  UNL1       -0.0315
      6 C           4.6725    0.5052    0.0000 C.3     1  UNL1       -0.0310
      7 C           6.2820    0.5052    0.0000 C.3     1  UNL1       -0.0458
      8 C           3.7205    0.0978    0.0000 C.3     1  UNL1       -0.0353
      9 C           4.4435   -1.5391    0.0000 C.3     1  UNL1       -0.0466
     10 C           6.1201   -0.1806    0.0000 C.3     1  UNL1       -0.0585
     11 C           3.6052   -0.9312    0.0000 C.3     1  UNL1       -0.0492
     12 C           6.2020   -1.6876    0.0000 C.3     1  UNL1       -0.0588
     13 C           2.9178    0.6942    0.0000 C.3     1  UNL1       -0.0436
     14 C           2.0000    0.2973    0.0000 C.3     1  UNL1       -0.0624
     15 C           3.0330    1.6876    0.0000 C.3     1  UNL1       -0.0624
     16 H           4.4767    2.1384    0.0000 H       1  UNL1        0.0312
     17 H           6.4777    2.1384    0.0000 H       1  UNL1        0.0309
     18 H           6.2166   -0.4978    0.0000 H       1  UNL1        0.0309
     19 H           4.0442    1.0777    0.0000 H       1  UNL1        0.0309
     20 H           6.5912   -0.0322    0.0000 H       1  UNL1        0.0271
     21 H           6.8489    0.7562    0.0000 H       1  UNL1        0.0271
     22 H           2.9410   -0.2411    0.0000 H       1  UNL1        0.0306
     23 H           3.9990   -1.9714    0.0000 H       1  UNL1        0.0271
     24 H           4.7933   -2.0510    0.0000 H       1  UNL1        0.0271
     25 H           5.6452   -0.5792    0.0000 H       1  UNL1        0.0235
     26 H           6.5187   -0.6555    0.0000 H       1  UNL1        0.0235
     27 H           6.5950    0.2179    0.0000 H       1  UNL1        0.0235
     28 H           3.0100   -0.7578    0.0000 H       1  UNL1        0.0268
     29 H           3.3325   -1.4880    0.0000 H       1  UNL1        0.0268
     30 H           5.8439   -2.1936    0.0000 H       1  UNL1        0.0235
     31 H           6.7081   -2.0457    0.0000 H       1  UNL1        0.0235
     32 H           6.5602   -1.1815    0.0000 H       1  UNL1        0.0235
     33 H           3.4869    0.9403    0.0000 H       1  UNL1        0.0298
     34 H           1.7539    0.8663    0.0000 H       1  UNL1        0.0232
     35 H           1.4309    0.0512    0.0000 H       1  UNL1        0.0232
     36 H           2.2461   -0.2718    0.0000 H       1  UNL1        0.0232
     37 H           3.6489    1.6162    0.0000 H       1  UNL1        0.0232
     38 H           3.1044    2.3034    0.0000 H       1  UNL1        0.0232
     39 H           2.4171    1.7590    0.0000 H       1  UNL1        0.0232
@<TRIPOS>BOND
     1     1     2    1
     2     1     3    1
     3     1     4    1
     4     1    10    1
     5     2     3    1
     6     2     6    1
     7     2    16    1
     8     3     7    1
     9     3    17    1
    10     4     5    1
    11     4     9    1
    12     4    12    1
    13     5     6    1
    14     5     7    1
    15     5    18    1
    16     6     8    1
    17     6    19    1
    18     7    20    1
    19     7    21    1
    20     8    11    1
    21     8    13    1
    22     8    22    1
    23     9    11    1
    24     9    23    1
    25     9    24    1
    26    10    25    1
    27    10    26    1
    28    10    27    1
    29    11    28    1
    30    11    29    1
    31    12    30    1
    32    12    31    1
    33    12    32    1
    34    13    14    1
    35    13    15    1
    36    13    33    1
    37    14    34    1
    38    14    35    1
    39    14    36    1
    40    15    37    1
    41    15    38    1
    42    15    39    1
