@<TRIPOS>MOLECULE
IMPHY007070
 79 78 0 0 0
SMALL
GASTEIGER

@<TRIPOS>ATOM
      1 O          16.7224   -0.5950    0.0000 O.3     1  UNL1       -0.3917
      2 O          18.4545   -0.5950    0.0000 O.3     1  UNL1       -0.3917
      3 C          16.7224    0.4050    0.0000 C.3     1  UNL1        0.0576
      4 C          15.8564    0.9050    0.0000 C.3     1  UNL1       -0.0268
      5 C          14.9904    0.4050    0.0000 C.3     1  UNL1       -0.0507
      6 C          14.1244    0.9050    0.0000 C.3     1  UNL1       -0.0530
      7 C          17.5885    0.9050    0.0000 C.3     1  UNL1       -0.0007
      8 C          13.2583    0.4050    0.0000 C.3     1  UNL1       -0.0531
      9 C          12.3923    0.9050    0.0000 C.3     1  UNL1       -0.0531
     10 C          11.5263    0.4050    0.0000 C.3     1  UNL1       -0.0531
     11 C          18.4545    0.4050    0.0000 C.3     1  UNL1        0.0576
     12 C          10.6603    0.9050    0.0000 C.3     1  UNL1       -0.0531
     13 C           9.7942    0.4050    0.0000 C.3     1  UNL1       -0.0531
     14 C           8.9282    0.9050    0.0000 C.3     1  UNL1       -0.0531
     15 C           8.0622    0.4050    0.0000 C.3     1  UNL1       -0.0531
     16 C          19.3205    0.9050    0.0000 C.3     1  UNL1       -0.0268
     17 C           7.1962    0.9050    0.0000 C.3     1  UNL1       -0.0531
     18 C           6.3301    0.4050    0.0000 C.3     1  UNL1       -0.0531
     19 C          20.1865    0.4050    0.0000 C.3     1  UNL1       -0.0507
     20 C           5.4641    0.9050    0.0000 C.3     1  UNL1       -0.0531
     21 C          21.0526    0.9050    0.0000 C.3     1  UNL1       -0.0532
     22 C           4.5981    0.4050    0.0000 C.3     1  UNL1       -0.0531
     23 C           3.7320    0.9050    0.0000 C.3     1  UNL1       -0.0533
     24 C          21.9186    0.4050    0.0000 C.3     1  UNL1       -0.0559
     25 C           2.8660    0.4050    0.0000 C.3     1  UNL1       -0.0559
     26 C          22.7846    0.9050    0.0000 C.3     1  UNL1       -0.0653
     27 C           2.0000    0.9050    0.0000 C.3     1  UNL1       -0.0653
     28 H          16.1855    0.0950    0.0000 H       1  UNL1        0.0594
     29 H          16.2549    1.3800    0.0000 H       1  UNL1        0.0290
     30 H          15.4579    1.3800    0.0000 H       1  UNL1        0.0290
     31 H          14.5919   -0.0699    0.0000 H       1  UNL1        0.0266
     32 H          15.3889   -0.0699    0.0000 H       1  UNL1        0.0266
     33 H          14.5229    1.3800    0.0000 H       1  UNL1        0.0265
     34 H          13.7258    1.3800    0.0000 H       1  UNL1        0.0265
     35 H          17.9870    1.3800    0.0000 H       1  UNL1        0.0315
     36 H          17.1899    1.3800    0.0000 H       1  UNL1        0.0315
     37 H          12.8598   -0.0699    0.0000 H       1  UNL1        0.0265
     38 H          13.6569   -0.0699    0.0000 H       1  UNL1        0.0265
     39 H          12.7908    1.3800    0.0000 H       1  UNL1        0.0265
     40 H          11.9938    1.3800    0.0000 H       1  UNL1        0.0265
     41 H          11.1278   -0.0699    0.0000 H       1  UNL1        0.0265
     42 H          11.9248   -0.0699    0.0000 H       1  UNL1        0.0265
     43 H          17.9175    0.0950    0.0000 H       1  UNL1        0.0594
     44 H          11.0588    1.3800    0.0000 H       1  UNL1        0.0265
     45 H          10.2617    1.3800    0.0000 H       1  UNL1        0.0265
     46 H           9.3957   -0.0699    0.0000 H       1  UNL1        0.0265
     47 H          10.1928   -0.0699    0.0000 H       1  UNL1        0.0265
     48 H           9.3267    1.3800    0.0000 H       1  UNL1        0.0265
     49 H           8.5297    1.3800    0.0000 H       1  UNL1        0.0265
     50 H           7.6636   -0.0699    0.0000 H       1  UNL1        0.0265
     51 H           8.4607   -0.0699    0.0000 H       1  UNL1        0.0265
     52 H          19.7190    1.3800    0.0000 H       1  UNL1        0.0290
     53 H          18.9220    1.3800    0.0000 H       1  UNL1        0.0290
     54 H           7.5947    1.3800    0.0000 H       1  UNL1        0.0265
     55 H           6.7976    1.3800    0.0000 H       1  UNL1        0.0265
     56 H           5.9316   -0.0699    0.0000 H       1  UNL1        0.0265
     57 H           6.7287   -0.0699    0.0000 H       1  UNL1        0.0265
     58 H          19.7880   -0.0699    0.0000 H       1  UNL1        0.0266
     59 H          20.5851   -0.0699    0.0000 H       1  UNL1        0.0266
     60 H           5.8626    1.3800    0.0000 H       1  UNL1        0.0265
     61 H           5.0656    1.3800    0.0000 H       1  UNL1        0.0265
     62 H          21.4511    1.3800    0.0000 H       1  UNL1        0.0265
     63 H          20.6540    1.3800    0.0000 H       1  UNL1        0.0265
     64 H           4.1996   -0.0699    0.0000 H       1  UNL1        0.0265
     65 H           4.9966   -0.0699    0.0000 H       1  UNL1        0.0265
     66 H          16.1855   -0.9050    0.0000 H       1  UNL1        0.2098
     67 H           4.1306    1.3800    0.0000 H       1  UNL1        0.0265
     68 H           3.3335    1.3800    0.0000 H       1  UNL1        0.0265
     69 H          21.5201   -0.0699    0.0000 H       1  UNL1        0.0263
     70 H          22.3171   -0.0699    0.0000 H       1  UNL1        0.0263
     71 H          18.9914   -0.9050    0.0000 H       1  UNL1        0.2098
     72 H           2.4675   -0.0699    0.0000 H       1  UNL1        0.0263
     73 H           3.2646   -0.0699    0.0000 H       1  UNL1        0.0263
     74 H          23.0946    0.3681    0.0000 H       1  UNL1        0.0230
     75 H          23.3215    1.2150    0.0000 H       1  UNL1        0.0230
     76 H          22.4746    1.4419    0.0000 H       1  UNL1        0.0230
     77 H           2.3100    1.4419    0.0000 H       1  UNL1        0.0230
     78 H           1.4631    1.2150    0.0000 H       1  UNL1        0.0230
     79 H           1.6900    0.3681    0.0000 H       1  UNL1        0.0230
@<TRIPOS>BOND
     1     1     3    1
     2     1    66    1
     3     2    11    1
     4     2    71    1
     5     3     4    1
     6     3     7    1
     7     3    28    1
     8     4     5    1
     9     4    29    1
    10     4    30    1
    11     5     6    1
    12     5    31    1
    13     5    32    1
    14     6     8    1
    15     6    33    1
    16     6    34    1
    17     7    11    1
    18     7    35    1
    19     7    36    1
    20     8     9    1
    21     8    37    1
    22     8    38    1
    23     9    10    1
    24     9    39    1
    25     9    40    1
    26    10    12    1
    27    10    41    1
    28    10    42    1
    29    11    16    1
    30    11    43    1
    31    12    13    1
    32    12    44    1
    33    12    45    1
    34    13    14    1
    35    13    46    1
    36    13    47    1
    37    14    15    1
    38    14    48    1
    39    14    49    1
    40    15    17    1
    41    15    50    1
    42    15    51    1
    43    16    19    1
    44    16    52    1
    45    16    53    1
    46    17    18    1
    47    17    54    1
    48    17    55    1
    49    18    20    1
    50    18    56    1
    51    18    57    1
    52    19    21    1
    53    19    58    1
    54    19    59    1
    55    20    22    1
    56    20    60    1
    57    20    61    1
    58    21    24    1
    59    21    62    1
    60    21    63    1
    61    22    23    1
    62    22    64    1
    63    22    65    1
    64    23    25    1
    65    23    67    1
    66    23    68    1
    67    24    26    1
    68    24    69    1
    69    24    70    1
    70    25    27    1
    71    25    72    1
    72    25    73    1
    73    26    74    1
    74    26    75    1
    75    26    76    1
    76    27    77    1
    77    27    78    1
    78    27    79    1
