@<TRIPOS>MOLECULE
IMPHY008951
 85 89 0 0 0
SMALL
GASTEIGER

@<TRIPOS>ATOM
      1 O           3.3248    1.0714    0.0000 O.3     1  UNL1       -0.3880
      2 O          10.9848    3.2830    0.0000 O.3     1  UNL1       -0.3912
      3 O           3.8493   -2.9031    0.0000 O.3     1  UNL1       -0.4675
      4 O           5.5813   -2.9164    0.0000 O.2     1  UNL1       -0.2502
      5 C           7.3770    0.1387    0.0000 C.3     1  UNL1       -0.0194
      6 C           7.3770    1.1387    0.0000 C.3     1  UNL1       -0.0257
      7 C           8.2709    1.6733    0.0000 C.3     1  UNL1       -0.0250
      8 C           6.5109   -0.3613    0.0000 C.3     1  UNL1       -0.0050
      9 C           9.1770    1.1595    0.0000 C.3     1  UNL1       -0.0278
     10 C           8.2709   -0.3960    0.0000 C.3     1  UNL1       -0.0463
     11 C           5.6449    0.1387    0.0000 C.2     1  UNL1       -0.0602
     12 C           4.7349   -0.3682    0.0000 C.3     1  UNL1        0.0252
     13 C           9.1770    0.1178    0.0000 C.3     1  UNL1       -0.0486
     14 C          10.1208    1.6947    0.0000 C.3     1  UNL1       -0.0056
     15 C           6.5109    1.6387    0.0000 C.3     1  UNL1       -0.0306
     16 C           6.5270   -1.4028    0.0000 C.3     1  UNL1       -0.0424
     17 C           4.7269   -1.4098    0.0000 C.3     1  UNL1        0.0768
     18 C           8.2458    2.7580    0.0000 C.3     1  UNL1       -0.0447
     19 C           5.6290   -1.9306    0.0000 C.3     1  UNL1       -0.0358
     20 C           7.7191   -0.8010    0.0000 C.3     1  UNL1       -0.0585
     21 C           5.6449    1.1387    0.0000 C.2     1  UNL1       -0.0835
     22 C           3.8081    0.1959    0.0000 C.3     1  UNL1        0.0733
     23 C          10.1208    2.7797    0.0000 C.3     1  UNL1        0.0606
     24 C           7.4010    2.1666    0.0000 C.3     1  UNL1       -0.0590
     25 C           7.1537   -1.1274    0.0000 C.3     1  UNL1       -0.0553
     26 C           9.1770    3.3149    0.0000 C.3     1  UNL1       -0.0258
     27 C           3.7914   -1.9595    0.0000 C.3     1  UNL1       -0.0363
     28 C           2.8602   -0.3321    0.0000 C.3     1  UNL1       -0.0146
     29 C           2.8518   -1.4170    0.0000 C.3     1  UNL1       -0.0468
     30 C          11.1207    1.6909    0.0000 C.3     1  UNL1       -0.0572
     31 C          10.6174    0.8268    0.0000 C.3     1  UNL1       -0.0572
     32 C           4.7192   -2.4098    0.0000 C.2     1  UNL1        0.3137
     33 C           4.3247    1.0521    0.0000 C.3     1  UNL1       -0.0352
     34 C           2.0000    0.1779    0.0000 C.3     1  UNL1       -0.0598
     35 C           3.8416   -3.9030    0.0000 C.3     1  UNL1        0.0817
     36 H           7.9163    0.8328    0.0000 H       1  UNL1        0.0315
     37 H           9.7127    0.8474    0.0000 H       1  UNL1        0.0312
     38 H           7.8663   -0.8658    0.0000 H       1  UNL1        0.0271
     39 H           8.6645   -0.8750    0.0000 H       1  UNL1        0.0271
     40 H           4.7469    0.2517    0.0000 H       1  UNL1        0.0384
     41 H           9.3860   -0.4658    0.0000 H       1  UNL1        0.0268
     42 H           9.7878    0.2239    0.0000 H       1  UNL1        0.0268
     43 H           6.9095    2.1136    0.0000 H       1  UNL1        0.0310
     44 H           6.1124    2.1136    0.0000 H       1  UNL1        0.0310
     45 H           6.7450   -1.9832    0.0000 H       1  UNL1        0.0274
     46 H           7.1361   -1.2874    0.0000 H       1  UNL1        0.0274
     47 H           8.0233    3.3367    0.0000 H       1  UNL1        0.0271
     48 H           7.6376    2.6378    0.0000 H       1  UNL1        0.0271
     49 H           5.2316   -2.4066    0.0000 H       1  UNL1        0.0276
     50 H           6.0299   -2.4035    0.0000 H       1  UNL1        0.0276
     51 H           7.1365   -1.0131    0.0000 H       1  UNL1        0.0235
     52 H           7.9312   -1.3836    0.0000 H       1  UNL1        0.0235
     53 H           8.3017   -0.5889    0.0000 H       1  UNL1        0.0235
     54 H           5.1080    1.4487    0.0000 H       1  UNL1        0.0572
     55 H          10.6583    2.4707    0.0000 H       1  UNL1        0.0599
     56 H           7.7069    2.7059    0.0000 H       1  UNL1        0.0235
     57 H           6.8617    2.4725    0.0000 H       1  UNL1        0.0235
     58 H           7.0952    1.6273    0.0000 H       1  UNL1        0.0235
     59 H           6.6788   -1.5259    0.0000 H       1  UNL1        0.0238
     60 H           7.5522   -1.6023    0.0000 H       1  UNL1        0.0238
     61 H           7.6287   -0.7289    0.0000 H       1  UNL1        0.0238
     62 H           9.5706    3.7940    0.0000 H       1  UNL1        0.0290
     63 H           8.7724    3.7847    0.0000 H       1  UNL1        0.0290
     64 H           3.3942   -2.4355    0.0000 H       1  UNL1        0.0276
     65 H           4.1924   -2.4324    0.0000 H       1  UNL1        0.0276
     66 H           2.8686    0.2879    0.0000 H       1  UNL1        0.0326
     67 H           2.2418   -1.3062    0.0000 H       1  UNL1        0.0269
     68 H           2.6383   -1.9991    0.0000 H       1  UNL1        0.0269
     69 H          10.0793    0.5188    0.0000 H       1  UNL1        0.0236
     70 H          10.9253    0.2886    0.0000 H       1  UNL1        0.0236
     71 H          11.1184    1.0709    0.0000 H       1  UNL1        0.0236
     72 H          11.7407    1.6885    0.0000 H       1  UNL1        0.0236
     73 H          11.1231    2.3108    0.0000 H       1  UNL1        0.0236
     74 H          11.1555    1.1347    0.0000 H       1  UNL1        0.0236
     75 H           4.8555    0.7318    0.0000 H       1  UNL1        0.0257
     76 H           4.6450    1.5830    0.0000 H       1  UNL1        0.0257
     77 H           3.7938    1.3724    0.0000 H       1  UNL1        0.0257
     78 H           2.3162    0.7112    0.0000 H       1  UNL1        0.0233
     79 H           1.4667    0.4941    0.0000 H       1  UNL1        0.0233
     80 H           1.6838   -0.3554    0.0000 H       1  UNL1        0.0233
     81 H           2.7050    1.0833    0.0000 H       1  UNL1        0.2102
     82 H          10.9825    3.9030    0.0000 H       1  UNL1        0.2098
     83 H           3.2216   -3.8983    0.0000 H       1  UNL1        0.0661
     84 H           3.8368   -4.5230    0.0000 H       1  UNL1        0.0661
     85 H           4.4616   -3.9078    0.0000 H       1  UNL1        0.0661
@<TRIPOS>BOND
     1     1    22    1
     2     1    81    1
     3     2    23    1
     4     2    82    1
     5     3    32    1
     6     3    35    1
     7     4    32    2
     8     5     6    1
     9     5     8    1
    10     5    10    1
    11     5    20    1
    12     6     7    1
    13     6    15    1
    14     6    36    1
    15     7     9    1
    16     7    18    1
    17     7    24    1
    18     8    11    1
    19     8    16    1
    20     8    25    1
    21     9    13    1
    22     9    14    1
    23     9    37    1
    24    10    13    1
    25    10    38    1
    26    10    39    1
    27    11    12    1
    28    11    21    2
    29    12    17    1
    30    12    22    1
    31    12    40    1
    32    13    41    1
    33    13    42    1
    34    14    23    1
    35    14    30    1
    36    14    31    1
    37    15    21    1
    38    15    43    1
    39    15    44    1
    40    16    19    1
    41    16    45    1
    42    16    46    1
    43    17    19    1
    44    17    27    1
    45    17    32    1
    46    18    26    1
    47    18    47    1
    48    18    48    1
    49    19    49    1
    50    19    50    1
    51    20    51    1
    52    20    52    1
    53    20    53    1
    54    21    54    1
    55    22    28    1
    56    22    33    1
    57    23    26    1
    58    23    55    1
    59    24    56    1
    60    24    57    1
    61    24    58    1
    62    25    59    1
    63    25    60    1
    64    25    61    1
    65    26    62    1
    66    26    63    1
    67    27    29    1
    68    27    64    1
    69    27    65    1
    70    28    29    1
    71    28    34    1
    72    28    66    1
    73    29    67    1
    74    29    68    1
    75    30    71    1
    76    30    72    1
    77    30    73    1
    78    31    69    1
    79    31    70    1
    80    31    74    1
    81    33    75    1
    82    33    76    1
    83    33    77    1
    84    34    78    1
    85    34    79    1
    86    34    80    1
    87    35    83    1
    88    35    84    1
    89    35    85    1
