@<TRIPOS>MOLECULE
IMPHY001248
 104 109 0 0 0
SMALL
GASTEIGER

@<TRIPOS>ATOM
      1 O           7.8620    6.1324    0.0000 O.3     1  UNL1       -0.3886
      2 O           9.6571    5.0588    0.0000 O.3     1  UNL1       -0.3892
      3 O           5.4100    5.4690    0.0000 O.3     1  UNL1       -0.3944
      4 O           6.0010   -3.1262    0.0000 O.3     1  UNL1       -0.4318
      5 O           5.1350   -1.6262    0.0000 O.2     1  UNL1       -0.2501
      6 O           4.2690   -3.1262    0.0000 O.3     1  UNL1       -0.3312
      7 O           6.0010   -5.1262    0.0000 O.3     1  UNL1       -0.3829
      8 O           4.2690   -6.1262    0.0000 O.3     1  UNL1       -0.3864
      9 O           2.5369   -5.1262    0.0000 O.3     1  UNL1       -0.3865
     10 O           2.5369   -2.1262    0.0000 O.3     1  UNL1       -0.3924
     11 C           6.9067    1.4429    0.0000 C.3     1  UNL1       -0.0194
     12 C           7.7765    1.9362    0.0000 C.3     1  UNL1       -0.0257
     13 C           7.8006    2.9776    0.0000 C.3     1  UNL1       -0.0225
     14 C           6.8990    0.4429    0.0000 C.3     1  UNL1       -0.0051
     15 C           6.9067    3.5122    0.0000 C.3     1  UNL1       -0.0253
     16 C           6.0006    1.9567    0.0000 C.3     1  UNL1       -0.0463
     17 C           7.7611   -0.0637    0.0000 C.2     1  UNL1       -0.0626
     18 C           6.0006    2.9984    0.0000 C.3     1  UNL1       -0.0485
     19 C           6.9067    4.5972    0.0000 C.3     1  UNL1        0.0227
     20 C           7.7691   -1.1053    0.0000 C.3     1  UNL1       -0.0008
     21 C           8.6387    1.4295    0.0000 C.3     1  UNL1       -0.0306
     22 C           8.7565    3.4908    0.0000 C.3     1  UNL1       -0.0184
     23 C           5.9851   -0.0569    0.0000 C.3     1  UNL1       -0.0424
     24 C           6.8671   -1.6262    0.0000 C.3     1  UNL1        0.0746
     25 C           5.9206    1.2769    0.0000 C.3     1  UNL1       -0.0585
     26 C           5.9690   -1.0984    0.0000 C.3     1  UNL1       -0.0359
     27 C           7.8505    5.1325    0.0000 C.3     1  UNL1        0.0888
     28 C           8.6310    0.4296    0.0000 C.2     1  UNL1       -0.0836
     29 C           8.7816    4.5755    0.0000 C.3     1  UNL1        0.0822
     30 C           8.6588    2.4643    0.0000 C.3     1  UNL1       -0.0589
     31 C           5.9155    0.6242    0.0000 C.3     1  UNL1       -0.0553
     32 C           8.7170   -1.6333    0.0000 C.3     1  UNL1       -0.0337
     33 C           6.8503   -2.7110    0.0000 C.3     1  UNL1       -0.0364
     34 C           8.7254   -2.7182    0.0000 C.3     1  UNL1       -0.0407
     35 C           6.4100    5.4652    0.0000 C.3     1  UNL1        0.0523
     36 C           5.9067    4.6011    0.0000 C.3     1  UNL1       -0.0547
     37 C           7.7858   -3.2607    0.0000 C.3     1  UNL1       -0.0492
     38 C           6.0010   -2.1262    0.0000 C.2     1  UNL1        0.3161
     39 C           9.5772   -1.1233    0.0000 C.3     1  UNL1       -0.0616
     40 C           9.5933   -3.2149    0.0000 C.3     1  UNL1       -0.0622
     41 C           5.1350   -3.6262    0.0000 C.3     1  UNL1        0.2337
     42 C           5.1350   -4.6262    0.0000 C.3     1  UNL1        0.1455
     43 C           4.2690   -5.1262    0.0000 C.3     1  UNL1        0.1152
     44 C           3.4030   -3.6262    0.0000 C.3     1  UNL1        0.1140
     45 C           3.4030   -4.6262    0.0000 C.3     1  UNL1        0.1120
     46 C           2.5369   -3.1262    0.0000 C.3     1  UNL1        0.0731
     47 H           8.5191    2.3498    0.0000 H       1  UNL1        0.0315
     48 H           6.1722    3.9400    0.0000 H       1  UNL1        0.0313
     49 H           5.3898    2.0628    0.0000 H       1  UNL1        0.0271
     50 H           5.7916    1.3731    0.0000 H       1  UNL1        0.0271
     51 H           5.7916    3.5821    0.0000 H       1  UNL1        0.0268
     52 H           5.3898    2.8923    0.0000 H       1  UNL1        0.0268
     53 H           8.5003   -0.6719    0.0000 H       1  UNL1        0.0359
     54 H           9.2484    1.3172    0.0000 H       1  UNL1        0.0310
     55 H           8.8552    2.0105    0.0000 H       1  UNL1        0.0310
     56 H           8.9520    2.9025    0.0000 H       1  UNL1        0.0296
     57 H           9.3697    3.5828    0.0000 H       1  UNL1        0.0296
     58 H           5.7850    0.5300    0.0000 H       1  UNL1        0.0274
     59 H           5.3727   -0.1536    0.0000 H       1  UNL1        0.0274
     60 H           5.8176    1.8883    0.0000 H       1  UNL1        0.0235
     61 H           5.3092    1.1740    0.0000 H       1  UNL1        0.0235
     62 H           6.0235    0.6655    0.0000 H       1  UNL1        0.0235
     63 H           5.3599   -0.9829    0.0000 H       1  UNL1        0.0276
     64 H           5.7510   -1.6788    0.0000 H       1  UNL1        0.0276
     65 H           7.3165    5.4476    0.0000 H       1  UNL1        0.0625
     66 H           9.1655    0.1154    0.0000 H       1  UNL1        0.0572
     67 H           8.7924    5.1954    0.0000 H       1  UNL1        0.0619
     68 H           8.3406    1.9322    0.0000 H       1  UNL1        0.0235
     69 H           9.1909    2.1460    0.0000 H       1  UNL1        0.0235
     70 H           8.9771    2.9964    0.0000 H       1  UNL1        0.0235
     71 H           6.0279    1.2339    0.0000 H       1  UNL1        0.0238
     72 H           5.3058    0.7365    0.0000 H       1  UNL1        0.0238
     73 H           5.8032    0.0144    0.0000 H       1  UNL1        0.0238
     74 H           8.7087   -1.0133    0.0000 H       1  UNL1        0.0307
     75 H           6.2412   -2.5955    0.0000 H       1  UNL1        0.0276
     76 H           6.6323   -3.2914    0.0000 H       1  UNL1        0.0276
     77 H           9.2605   -2.4052    0.0000 H       1  UNL1        0.0301
     78 H           6.9934    5.6750    0.0000 H       1  UNL1        0.0563
     79 H           6.3047    6.0762    0.0000 H       1  UNL1        0.0563
     80 H           5.9091    5.2211    0.0000 H       1  UNL1        0.0237
     81 H           5.2867    4.6035    0.0000 H       1  UNL1        0.0237
     82 H           5.9043    3.9811    0.0000 H       1  UNL1        0.0237
     83 H           7.3848   -3.7336    0.0000 H       1  UNL1        0.0268
     84 H           8.1831   -3.7367    0.0000 H       1  UNL1        0.0268
     85 H           9.8934   -1.6566    0.0000 H       1  UNL1        0.0233
     86 H          10.1105   -0.8071    0.0000 H       1  UNL1        0.0233
     87 H           9.2610   -0.5900    0.0000 H       1  UNL1        0.0233
     88 H           8.4025    6.4361    0.0000 H       1  UNL1        0.2099
     89 H          10.1880    4.7385    0.0000 H       1  UNL1        0.2099
     90 H           9.2854   -3.7530    0.0000 H       1  UNL1        0.0233
     91 H          10.1315   -3.5228    0.0000 H       1  UNL1        0.0233
     92 H           9.9013   -2.6768    0.0000 H       1  UNL1        0.0233
     93 H           5.1021    6.0071    0.0000 H       1  UNL1        0.2094
     94 H           5.1350   -3.0062    0.0000 H       1  UNL1        0.1085
     95 H           5.1350   -5.2462    0.0000 H       1  UNL1        0.0683
     96 H           3.7320   -5.4361    0.0000 H       1  UNL1        0.0648
     97 H           3.4030   -3.0062    0.0000 H       1  UNL1        0.0647
     98 H           2.8660   -4.3162    0.0000 H       1  UNL1        0.0647
     99 H           6.5380   -4.8162    0.0000 H       1  UNL1        0.2102
    100 H           1.9264   -3.0185    0.0000 H       1  UNL1        0.0584
    101 H           2.3249   -3.7088    0.0000 H       1  UNL1        0.0584
    102 H           3.7320   -6.4361    0.0000 H       1  UNL1        0.2100
    103 H           2.0000   -4.8162    0.0000 H       1  UNL1        0.2100
    104 H           2.0000   -1.8162    0.0000 H       1  UNL1        0.2095
@<TRIPOS>BOND
     1    27     1    1
     2     1    88    1
     3    29     2    1
     4     2    89    1
     5     3    35    1
     6     3    93    1
     7     4    38    1
     8    41     4    1
     9     5    38    2
    10     6    41    1
    11     6    44    1
    12    42     7    1
    13     7    99    1
    14    43     8    1
    15     8   102    1
    16    45     9    1
    17     9   103    1
    18    10    46    1
    19    10   104    1
    20    11    12    1
    21    11    14    1
    22    11    16    1
    23    11    25    1
    24    12    13    1
    25    12    21    1
    26    12    47    1
    27    13    15    1
    28    13    22    1
    29    13    30    1
    30    14    17    1
    31    14    23    1
    32    14    31    1
    33    15    18    1
    34    15    19    1
    35    15    48    1
    36    16    18    1
    37    16    49    1
    38    16    50    1
    39    17    20    1
    40    17    28    2
    41    18    51    1
    42    18    52    1
    43    19    27    1
    44    19    35    1
    45    19    36    1
    46    20    24    1
    47    20    32    1
    48    20    53    1
    49    21    28    1
    50    21    54    1
    51    21    55    1
    52    22    29    1
    53    22    56    1
    54    22    57    1
    55    23    26    1
    56    23    58    1
    57    23    59    1
    58    24    26    1
    59    24    33    1
    60    24    38    1
    61    25    60    1
    62    25    61    1
    63    25    62    1
    64    26    63    1
    65    26    64    1
    66    27    29    1
    67    27    65    1
    68    28    66    1
    69    29    67    1
    70    30    68    1
    71    30    69    1
    72    30    70    1
    73    31    71    1
    74    31    72    1
    75    31    73    1
    76    32    34    1
    77    32    39    1
    78    32    74    1
    79    33    37    1
    80    33    75    1
    81    33    76    1
    82    34    37    1
    83    34    40    1
    84    34    77    1
    85    35    78    1
    86    35    79    1
    87    36    80    1
    88    36    81    1
    89    36    82    1
    90    37    83    1
    91    37    84    1
    92    39    85    1
    93    39    86    1
    94    39    87    1
    95    40    90    1
    96    40    91    1
    97    40    92    1
    98    41    42    1
    99    41    94    1
   100    42    43    1
   101    42    95    1
   102    43    45    1
   103    43    96    1
   104    44    45    1
   105    44    46    1
   106    44    97    1
   107    45    98    1
   108    46   100    1
   109    46   101    1
