@<TRIPOS>MOLECULE
IMPHY010757
 36 40 0 0 0
SMALL
GASTEIGER

@<TRIPOS>ATOM
      1 C           2.2986   -7.8051    0.0000 C.3     1  UNL1        0.0248
      2 C           3.3713   -7.0797    0.0000 C.3     1  UNL1       -0.0170
      3 C           3.3713   -5.7312    0.0000 C.3     1  UNL1       -0.0043
      4 C           4.4440   -5.0570    0.0000 C.3     1  UNL1        0.0090
      5 C           5.5678   -5.7312    0.0000 C.3     1  UNL1       -0.0014
      6 C           6.7733   -5.0570    0.0000 C.3     1  UNL1       -0.0038
      7 C           6.7733   -3.7289    0.0000 C.3     1  UNL1       -0.0197
      8 C           7.9175   -3.1057    0.0000 C.3     1  UNL1       -0.0189
      9 C           9.0617   -3.7289    0.0000 C.3     1  UNL1       -0.0033
     10 C           9.0617   -5.0570    0.0000 C.3     1  UNL1       -0.0003
     11 C           7.9175   -5.7312    0.0000 C.3     1  UNL1       -0.0003
     12 C           1.1238   -7.0797    0.0000 C.3     1  UNL1        0.1516
     13 C           1.1238   -5.7312    0.0000 C.3     1  UNL1        0.0329
     14 C           2.2986   -5.0570    0.0000 C.3     1  UNL1        0.0021
     15 C           4.4440   -7.8051    0.0000 C.3     1  UNL1       -0.0039
     16 C           5.5678   -7.0797    0.0000 C.3     1  UNL1       -0.0005
     17 C           4.4440   -3.7289    0.0000 C.3     1  UNL1        0.1479
     18 C           5.5678   -3.1057    0.0000 C.3     1  UNL1        0.0284
     19 C           7.9175   -1.7572    0.0000 C.3     1  UNL1        0.0144
     20 C          10.2161   -1.7572    0.0000 C.3     1  UNL1        0.0037
     21 C          10.2161   -3.1057    0.0000 C.3     1  UNL1        0.0000
     22 C           1.5937   -8.8982    0.0000 C.3     1  UNL1        0.0022
     23 C           3.0035   -8.9084    0.0000 C.3     1  UNL1        0.0022
     24 C           3.3713   -4.4133    0.0000 C.3     1  UNL1       -0.0005
     25 C           5.5678   -4.4236    0.0000 C.3     1  UNL1       -0.0002
     26 C           6.8039   -6.4157    0.0000 C.3     1  UNL1       -0.0003
     27 C           9.0617   -2.5745    0.0000 C.3     1  UNL1       -0.0003
     28 O           0.0000   -7.7131    0.0000 O.3     1  UNL1       -0.2232
     29 O           3.2998   -3.0546    0.0000 O.3     1  UNL1       -0.2235
     30 C           6.9980   -1.1544    0.0000 C.2     1  UNL1       -0.0445
     31 C           6.9980    0.0000    0.0000 C.2     1  UNL1       -0.0091
     32 C           5.9866   -1.7572    0.0000 C.3     1  UNL1        0.0263
     33 H           3.3815   -8.3772    0.0000 H       1  UNL1        0.0319
     34 H           7.9175   -4.4236    0.0000 H       1  UNL1        0.0319
     35 H           6.7835   -2.4314    0.0000 H       1  UNL1        0.0316
     36 H           4.4746   -6.4157    0.0000 H       1  UNL1        0.0342
@<TRIPOS>BOND
     1     1     2    1
     2     1    12    1
     3     1    23    1
     4     1    22    1
     5     2     3    1
     6     2    15    1
     7     2    33    1
     8     3    14    1
     9     3     4    1
    10     3    24    1
    11     4     5    1
    12     4    17    1
    13     4    36    1
    14     5    16    1
    15     5     6    1
    16     5    25    1
    17     6     7    1
    18     6    11    1
    19     6    26    1
    20     7    18    1
    21     7     8    1
    22     7    35    1
    23     8     9    1
    24     8    19    1
    25     8    34    1
    26     9    10    1
    27     9    21    1
    28     9    27    1
    29    10    11    1
    30    12    13    1
    31    12    28    1
    32    13    14    1
    33    15    16    1
    34    17    18    1
    35    17    29    1
    36    19    20    1
    37    19    30    1
    38    20    21    1
    39    30    31    2
    40    30    32    1
