@<TRIPOS>MOLECULE
IMPHY008246
 109 113 0 0 0
SMALL
GASTEIGER

@<TRIPOS>ATOM
      1 O           9.0465    1.7760    0.0000 O.3     1  UNL1       -0.3853
      2 O           9.8204    0.6558    0.0000 O.3     1  UNL1       -0.3914
      3 O           9.8775    2.1135    0.0000 O.3     1  UNL1       -0.3864
      4 O           9.8969    4.1617    0.0000 O.3     1  UNL1       -0.3888
      5 O           7.1963    6.8180    0.0000 O.3     1  UNL1       -0.3918
      6 O           8.6823   -4.1552    0.0000 O.3     1  UNL1       -0.3860
      7 O           7.2144   -4.4913    0.0000 O.3     1  UNL1       -0.3459
      8 O           5.4543   -4.2126    0.0000 O.3     1  UNL1       -0.3402
      9 O           6.5421   -6.5604    0.0000 O.3     1  UNL1       -0.3841
     10 O           4.3665   -6.5604    0.0000 O.3     1  UNL1       -0.3864
     11 O           2.9511   -5.1605    0.0000 O.3     1  UNL1       -0.3748
     12 O           2.5352   -3.2042    0.0000 O.3     1  UNL1       -0.3924
     13 C           8.1074    2.1197    0.0000 C.3     1  UNL1        0.1031
     14 C           8.1056    1.1197    0.0000 C.3     1  UNL1        0.0223
     15 C           7.2387    0.6212    0.0000 C.3     1  UNL1       -0.0210
     16 C           7.2422    2.6212    0.0000 C.3     1  UNL1       -0.0035
     17 C           7.2280    3.6627    0.0000 C.3     1  UNL1       -0.0211
     18 C           7.4463   -0.3510    0.0000 C.3     1  UNL1       -0.0303
     19 C           8.1269    4.1889    0.0000 C.3     1  UNL1       -0.0044
     20 C           6.3736    1.1227    0.0000 C.3     1  UNL1       -0.0466
     21 C           6.3753    2.1227    0.0000 C.3     1  UNL1       -0.0465
     22 C           8.8415    0.4513    0.0000 C.3     1  UNL1        0.0615
     23 C           9.0182    2.6249    0.0000 C.3     1  UNL1        0.1105
     24 C           8.4348   -0.4558    0.0000 C.3     1  UNL1       -0.0229
     25 C           9.0281    3.6665    0.0000 C.3     1  UNL1        0.0872
     26 C           6.2769    4.1850    0.0000 C.3     1  UNL1       -0.0446
     27 C           6.3718    0.1227    0.0000 C.3     1  UNL1       -0.0589
     28 C           6.7771   -1.0942    0.0000 C.3     1  UNL1       -0.0404
     29 C           8.1371    5.2739    0.0000 C.3     1  UNL1       -0.0211
     30 C           6.3649    3.1575    0.0000 C.3     1  UNL1       -0.0589
     31 C           6.2621    5.2699    0.0000 C.3     1  UNL1       -0.0263
     32 C           7.1984    5.8180    0.0000 C.3     1  UNL1        0.0556
     33 C           7.0862   -2.0452    0.0000 C.3     1  UNL1       -0.0475
     34 C           5.7990   -0.8862    0.0000 C.3     1  UNL1       -0.0621
     35 C           8.0643   -2.2531    0.0000 C.3     1  UNL1       -0.0213
     36 C           8.3733   -3.2042    0.0000 C.3     1  UNL1        0.0917
     37 C           9.3244   -2.8952    0.0000 C.3     1  UNL1       -0.0156
     38 C           7.4223   -3.5132    0.0000 C.3     1  UNL1        0.0797
     39 C           9.5323   -1.9170    0.0000 C.3     1  UNL1       -0.0600
     40 C          10.0675   -3.5643    0.0000 C.3     1  UNL1       -0.0600
     41 C           6.2633   -4.8004    0.0000 C.3     1  UNL1        0.1880
     42 C           5.9543   -5.7514    0.0000 C.3     1  UNL1        0.1341
     43 C           4.9543   -5.7514    0.0000 C.3     1  UNL1        0.1144
     44 C           4.6453   -4.8004    0.0000 C.3     1  UNL1        0.1183
     45 C           3.6942   -4.4913    0.0000 C.3     1  UNL1        0.1099
     46 C           3.4863   -3.5132    0.0000 C.3     1  UNL1        0.0729
     47 C           2.0000   -4.8514    0.0000 C.3     1  UNL1        0.0370
     48 H           8.8832    1.4630    0.0000 H       1  UNL1        0.0360
     49 H           7.9758    3.0506    0.0000 H       1  UNL1        0.0335
     50 H           7.7505   -1.1447    0.0000 H       1  UNL1        0.0310
     51 H           8.8654    4.6098    0.0000 H       1  UNL1        0.0333
     52 H           5.7632    1.2314    0.0000 H       1  UNL1        0.0271
     53 H           6.1605    0.5404    0.0000 H       1  UNL1        0.0271
     54 H           6.1643    2.7056    0.0000 H       1  UNL1        0.0269
     55 H           5.7646    2.0161    0.0000 H       1  UNL1        0.0269
     56 H           9.0043    1.0496    0.0000 H       1  UNL1        0.0597
     57 H           9.5587    2.9288    0.0000 H       1  UNL1        0.0648
     58 H           8.3050   -1.0620    0.0000 H       1  UNL1        0.0293
     59 H           9.0241   -0.6486    0.0000 H       1  UNL1        0.0293
     60 H           9.0303    4.2865    0.0000 H       1  UNL1        0.0623
     61 H           5.6647    4.2827    0.0000 H       1  UNL1        0.0272
     62 H           6.0759    3.5985    0.0000 H       1  UNL1        0.0272
     63 H           6.0628    0.6601    0.0000 H       1  UNL1        0.0235
     64 H           5.8344   -0.1864    0.0000 H       1  UNL1        0.0235
     65 H           6.6809   -0.4148    0.0000 H       1  UNL1        0.0235
     66 H           6.5855   -0.5045    0.0000 H       1  UNL1        0.0301
     67 H           8.7470    5.1620    0.0000 H       1  UNL1        0.0294
     68 H           8.3517    5.8555    0.0000 H       1  UNL1        0.0294
     69 H           6.0517    3.6926    0.0000 H       1  UNL1        0.0235
     70 H           5.8299    2.8443    0.0000 H       1  UNL1        0.0235
     71 H           6.6781    2.6225    0.0000 H       1  UNL1        0.0235
     72 H           6.0450    5.8506    0.0000 H       1  UNL1        0.0290
     73 H           5.6527    5.1554    0.0000 H       1  UNL1        0.0290
     74 H           9.1531    1.1653    0.0000 H       1  UNL1        0.2103
     75 H           6.6603    6.1258    0.0000 H       1  UNL1        0.0593
     76 H           6.4722   -2.1315    0.0000 H       1  UNL1        0.0269
     77 H           7.0645   -2.6648    0.0000 H       1  UNL1        0.0269
     78 H          10.2336    0.1937    0.0000 H       1  UNL1        0.2098
     79 H          10.4186    2.4163    0.0000 H       1  UNL1        0.2100
     80 H           5.9279   -0.2798    0.0000 H       1  UNL1        0.0233
     81 H           5.1925   -0.7573    0.0000 H       1  UNL1        0.0233
     82 H           5.6701   -1.4927    0.0000 H       1  UNL1        0.0233
     83 H           9.9003    4.7817    0.0000 H       1  UNL1        0.2099
     84 H           8.6783   -2.1668    0.0000 H       1  UNL1        0.0294
     85 H           8.0859   -1.6335    0.0000 H       1  UNL1        0.0294
     86 H           6.6587    7.1268    0.0000 H       1  UNL1        0.2098
     87 H           9.9140   -2.7036    0.0000 H       1  UNL1        0.0324
     88 H           7.3360   -2.8992    0.0000 H       1  UNL1        0.0589
     89 H           6.8026   -3.4916    0.0000 H       1  UNL1        0.0589
     90 H           9.2888   -4.2841    0.0000 H       1  UNL1        0.2103
     91 H          10.1387   -2.0459    0.0000 H       1  UNL1        0.0233
     92 H           9.6527   -4.0250    0.0000 H       1  UNL1        0.0233
     93 H          10.5283   -3.9792    0.0000 H       1  UNL1        0.0233
     94 H          10.4824   -3.1035    0.0000 H       1  UNL1        0.0233
     95 H           9.6612   -1.3106    0.0000 H       1  UNL1        0.0233
     96 H           8.9258   -1.7881    0.0000 H       1  UNL1        0.0233
     97 H           6.7017   -5.2388    0.0000 H       1  UNL1        0.0937
     98 H           5.6728   -6.3038    0.0000 H       1  UNL1        0.0671
     99 H           5.2358   -6.3038    0.0000 H       1  UNL1        0.0648
    100 H           4.5123   -3.9608    0.0000 H       1  UNL1        0.0651
    101 H           3.1046   -4.2998    0.0000 H       1  UNL1        0.0646
    102 H           7.1587   -6.4956    0.0000 H       1  UNL1        0.2101
    103 H           4.6187   -7.1268    0.0000 H       1  UNL1        0.2100
    104 H           4.1059   -3.4916    0.0000 H       1  UNL1        0.0584
    105 H           3.5726   -2.8992    0.0000 H       1  UNL1        0.0584
    106 H           2.1916   -4.2618    0.0000 H       1  UNL1        0.0524
    107 H           1.4103   -4.6599    0.0000 H       1  UNL1        0.0524
    108 H           1.8084   -5.4411    0.0000 H       1  UNL1        0.0524
    109 H           2.4063   -2.5977    0.0000 H       1  UNL1        0.2095
@<TRIPOS>BOND
     1    13     1    1
     2     1    74    1
     3    22     2    1
     4     2    78    1
     5    23     3    1
     6     3    79    1
     7    25     4    1
     8     4    83    1
     9    32     5    1
    10     5    86    1
    11     6    36    1
    12     6    90    1
    13     7    38    1
    14    41     7    1
    15     8    41    1
    16     8    44    1
    17    42     9    1
    18     9   102    1
    19    43    10    1
    20    10   103    1
    21    45    11    1
    22    11    47    1
    23    12    46    1
    24    12   109    1
    25    13    14    1
    26    13    16    1
    27    13    23    1
    28    14    15    1
    29    14    22    1
    30    14    48    1
    31    15    18    1
    32    15    20    1
    33    15    27    1
    34    16    17    1
    35    16    21    1
    36    16    49    1
    37    17    19    1
    38    17    26    1
    39    17    30    1
    40    18    24    1
    41    18    28    1
    42    18    50    1
    43    19    25    1
    44    19    29    1
    45    19    51    1
    46    20    21    1
    47    20    52    1
    48    20    53    1
    49    21    54    1
    50    21    55    1
    51    22    24    1
    52    22    56    1
    53    23    25    1
    54    23    57    1
    55    24    58    1
    56    24    59    1
    57    25    60    1
    58    26    31    1
    59    26    61    1
    60    26    62    1
    61    27    63    1
    62    27    64    1
    63    27    65    1
    64    28    33    1
    65    28    34    1
    66    28    66    1
    67    29    32    1
    68    29    67    1
    69    29    68    1
    70    30    69    1
    71    30    70    1
    72    30    71    1
    73    31    32    1
    74    31    72    1
    75    31    73    1
    76    32    75    1
    77    33    35    1
    78    33    76    1
    79    33    77    1
    80    34    80    1
    81    34    81    1
    82    34    82    1
    83    35    36    1
    84    35    84    1
    85    35    85    1
    86    36    37    1
    87    36    38    1
    88    37    39    1
    89    37    40    1
    90    37    87    1
    91    38    88    1
    92    38    89    1
    93    39    91    1
    94    39    95    1
    95    39    96    1
    96    40    92    1
    97    40    93    1
    98    40    94    1
    99    41    42    1
   100    41    97    1
   101    42    43    1
   102    42    98    1
   103    43    44    1
   104    43    99    1
   105    44    45    1
   106    44   100    1
   107    45    46    1
   108    45   101    1
   109    46   104    1
   110    46   105    1
   111    47   106    1
   112    47   107    1
   113    47   108    1
