@<TRIPOS>MOLECULE
IMPHY013021
 66 69 0 0 0
SMALL
GASTEIGER

@<TRIPOS>ATOM
      1 O           9.4893   -0.2961    0.0000 O.3     1  UNL1       -0.4548
      2 O           6.0010    0.5950    0.0000 O.2     1  UNL1       -0.4701
      3 O           6.8671   -0.9050    0.0000 O.3     1  UNL1       -0.3094
      4 O           5.1350   -0.9050    0.0000 O.3     1  UNL1       -0.3404
      5 O           6.8671   -2.9050    0.0000 O.3     1  UNL1       -0.3841
      6 O           6.0010    3.5950    0.0000 O.3     1  UNL1       -0.4773
      7 O           5.1350   -3.9050    0.0000 O.3     1  UNL1       -0.3864
      8 O           7.7331    3.5950    0.0000 O.2     1  UNL1       -0.2454
      9 O           3.4030   -2.9050    0.0000 O.3     1  UNL1       -0.3865
     10 O          10.5050    1.1069    0.0000 O.2     1  UNL1       -0.2456
     11 O           2.5369   -1.4050    0.0000 O.3     1  UNL1       -0.3924
     12 C           7.7331    0.5950    0.0000 C.3     1  UNL1        0.0683
     13 C           8.6793    0.2903    0.0000 C.3     1  UNL1        0.1201
     14 C           7.7331    1.5950    0.0000 C.3     1  UNL1        0.0061
     15 C           9.2629    1.0950    0.0000 C.3     1  UNL1       -0.0120
     16 C           8.6793    1.8997    0.0000 C.3     1  UNL1       -0.0417
     17 C           6.8671    0.0950    0.0000 C.3     1  UNL1        0.2105
     18 C           6.8671    2.0950    0.0000 C.2     1  UNL1        0.0742
     19 C           8.3719   -0.6613    0.0000 C.3     1  UNL1       -0.0243
     20 C           6.0010    1.5950    0.0000 C.2     1  UNL1        0.0981
     21 C           6.0010   -1.4050    0.0000 C.3     1  UNL1        0.1918
     22 C           6.0010   -2.4050    0.0000 C.3     1  UNL1        0.1342
     23 C           6.8671    3.0950    0.0000 C.2     1  UNL1        0.3360
     24 C           5.1350   -2.9050    0.0000 C.3     1  UNL1        0.1141
     25 C           4.2690   -2.4050    0.0000 C.3     1  UNL1        0.1119
     26 C           4.2690   -1.4050    0.0000 C.3     1  UNL1        0.1130
     27 C          10.4022    0.1122    0.0000 C.2     1  UNL1        0.3325
     28 C           3.4030   -0.9050    0.0000 C.3     1  UNL1        0.0730
     29 C          11.2122   -0.4742    0.0000 C.2     1  UNL1        0.0231
     30 C          12.1251   -0.0659    0.0000 C.2     1  UNL1       -0.0478
     31 C          12.9351   -0.6523    0.0000 C.ar    1  UNL1       -0.0248
     32 C          12.8323   -1.6470    0.0000 C.ar    1  UNL1       -0.0546
     33 C          13.8479   -0.2439    0.0000 C.ar    1  UNL1       -0.0546
     34 C          13.6423   -2.2333    0.0000 C.ar    1  UNL1       -0.0612
     35 C          14.6580   -0.8303    0.0000 C.ar    1  UNL1       -0.0612
     36 C          14.5552   -1.8250    0.0000 C.ar    1  UNL1       -0.0617
     37 H           7.8230   -0.2502    0.0000 H       1  UNL1        0.0406
     38 H           7.8230    2.4402    0.0000 H       1  UNL1        0.0358
     39 H           9.7238    0.6803    0.0000 H       1  UNL1        0.0304
     40 H           9.7238    1.5097    0.0000 H       1  UNL1        0.0304
     41 H           9.2167    2.2090    0.0000 H       1  UNL1        0.0272
     42 H           8.4283    2.4666    0.0000 H       1  UNL1        0.0272
     43 H           7.4040   -0.2150    0.0000 H       1  UNL1        0.1060
     44 H           7.7820   -0.4708    0.0000 H       1  UNL1        0.0268
     45 H           8.1814   -1.2513    0.0000 H       1  UNL1        0.0268
     46 H           8.9619   -0.8519    0.0000 H       1  UNL1        0.0268
     47 H           5.4641    1.9050    0.0000 H       1  UNL1        0.1029
     48 H           6.0010   -0.7850    0.0000 H       1  UNL1        0.0939
     49 H           6.0010   -3.0250    0.0000 H       1  UNL1        0.0671
     50 H           4.5981   -3.2150    0.0000 H       1  UNL1        0.0648
     51 H           4.2690   -3.0250    0.0000 H       1  UNL1        0.0647
     52 H           4.2690   -0.7850    0.0000 H       1  UNL1        0.0647
     53 H           3.8015   -0.4301    0.0000 H       1  UNL1        0.0584
     54 H           3.0044   -0.4301    0.0000 H       1  UNL1        0.0584
     55 H           6.8671   -3.5250    0.0000 H       1  UNL1        0.2101
     56 H           6.0010    4.2150    0.0000 H       1  UNL1        0.2954
     57 H          11.1485   -1.0909    0.0000 H       1  UNL1        0.0689
     58 H           4.5981   -4.2150    0.0000 H       1  UNL1        0.2100
     59 H           3.4030   -3.5250    0.0000 H       1  UNL1        0.2100
     60 H           2.0000   -1.0950    0.0000 H       1  UNL1        0.2095
     61 H          12.1888    0.5508    0.0000 H       1  UNL1        0.0626
     62 H          12.2663   -1.9001    0.0000 H       1  UNL1        0.0623
     63 H          13.9117    0.3728    0.0000 H       1  UNL1        0.0623
     64 H          13.5786   -2.8500    0.0000 H       1  UNL1        0.0618
     65 H          15.2239   -0.5772    0.0000 H       1  UNL1        0.0618
     66 H          15.0574   -2.1886    0.0000 H       1  UNL1        0.0618
@<TRIPOS>BOND
     1    13     1    1
     2     1    27    1
     3     2    17    1
     4     2    20    1
     5    17     3    1
     6    21     3    1
     7     4    21    1
     8     4    26    1
     9    22     5    1
    10     5    55    1
    11     6    23    1
    12     6    56    1
    13    24     7    1
    14     7    58    1
    15     8    23    2
    16    25     9    1
    17     9    59    1
    18    10    27    2
    19    11    28    1
    20    11    60    1
    21    12    13    1
    22    12    14    1
    23    12    17    1
    24    12    37    1
    25    13    15    1
    26    13    19    1
    27    14    16    1
    28    14    18    1
    29    14    38    1
    30    15    16    1
    31    15    39    1
    32    15    40    1
    33    16    41    1
    34    16    42    1
    35    17    43    1
    36    18    20    2
    37    18    23    1
    38    19    44    1
    39    19    45    1
    40    19    46    1
    41    20    47    1
    42    21    22    1
    43    21    48    1
    44    22    24    1
    45    22    49    1
    46    24    25    1
    47    24    50    1
    48    25    26    1
    49    25    51    1
    50    26    28    1
    51    26    52    1
    52    27    29    1
    53    28    53    1
    54    28    54    1
    55    29    30    2
    56    29    57    1
    57    30    31    1
    58    30    61    1
    59    31    32   ar
    60    31    33   ar
    61    32    34   ar
    62    32    62    1
    63    33    35   ar
    64    33    63    1
    65    34    36   ar
    66    34    64    1
    67    35    36   ar
    68    35    65    1
    69    36    66    1
