@<TRIPOS>MOLECULE
IMPHY002357
 86 87 0 0 0
SMALL
GASTEIGER

@<TRIPOS>ATOM
      1 O           5.0000   -3.2115    0.0000 O.3     1  UNL1       -0.3882
      2 O           6.1227    0.4629    0.0000 O.3     1  UNL1       -0.3905
      3 O           8.5524    1.3246    0.0000 O.3     1  UNL1       -0.4604
      4 O           5.0000    2.9846    0.0000 O.3     1  UNL1       -0.3950
      5 O           2.0000    1.2526    0.0000 O.2     1  UNL1       -0.2960
      6 O           7.5343    2.7258    0.0000 O.2     1  UNL1       -0.2512
      7 C           5.5000   -1.3455    0.0000 C.3     1  UNL1        0.0322
      8 C           5.0000   -2.2115    0.0000 C.3     1  UNL1        0.0721
      9 C           5.0000   -0.4795    0.0000 C.3     1  UNL1       -0.0086
     10 C           6.0878   -0.5365    0.0000 C.3     1  UNL1        0.0706
     11 C           6.0878   -2.1545    0.0000 C.3     1  UNL1       -0.0412
     12 C           7.0388   -0.8455    0.0000 C.3     1  UNL1        0.0102
     13 C           7.0388   -1.8455    0.0000 C.3     1  UNL1       -0.0433
     14 C           4.0000   -2.2115    0.0000 C.3     1  UNL1       -0.0199
     15 C           4.0000   -0.4795    0.0000 C.2     1  UNL1       -0.0597
     16 C           3.5000   -1.3455    0.0000 C.3     1  UNL1       -0.0282
     17 C           5.5000    0.3865    0.0000 C.3     1  UNL1       -0.0437
     18 C           5.7660   -2.8543    0.0000 C.3     1  UNL1       -0.0354
     19 C           7.8479   -0.2577    0.0000 C.2     1  UNL1       -0.0271
     20 C           5.0000    1.2526    0.0000 C.3     1  UNL1       -0.0292
     21 C           3.5000    0.3865    0.0000 C.2     1  UNL1       -0.0117
     22 C           7.7433    0.7368    0.0000 C.3     1  UNL1        0.1142
     23 C           8.7614   -0.6645    0.0000 C.2     1  UNL1       -0.0590
     24 C           5.5000    2.1186    0.0000 C.3     1  UNL1        0.0442
     25 C           4.0000    1.2526    0.0000 C.3     1  UNL1       -0.0367
     26 C           2.5000    0.3865    0.0000 C.2     1  UNL1        0.1460
     27 C           9.5704   -0.0767    0.0000 C.2     1  UNL1       -0.0614
     28 C          10.4840   -0.4834    0.0000 C.2     1  UNL1       -0.0591
     29 C           8.4478    2.3191    0.0000 C.2     1  UNL1        0.3042
     30 C          11.2930    0.1044    0.0000 C.2     1  UNL1       -0.0541
     31 C           9.2568    2.9069    0.0000 C.3     1  UNL1        0.0332
     32 C          12.2065   -0.3024    0.0000 C.3     1  UNL1       -0.0248
     33 C          11.1885    1.0989    0.0000 C.2     1  UNL1       -0.0955
     34 C          13.0155    0.2854    0.0000 C.3     1  UNL1       -0.0306
     35 C          13.9291   -0.1213    0.0000 C.2     1  UNL1       -0.0850
     36 C          14.7381    0.4665    0.0000 C.2     1  UNL1       -0.0796
     37 C          15.6517    0.0597    0.0000 C.3     1  UNL1       -0.0440
     38 C          14.6336    1.4610    0.0000 C.3     1  UNL1       -0.0440
     39 H           5.6200   -0.4795    0.0000 H       1  UNL1        0.0353
     40 H           5.5016   -0.3346    0.0000 H       1  UNL1        0.0606
     41 H           5.5508   -2.4645    0.0000 H       1  UNL1        0.0273
     42 H           6.3400   -2.7209    0.0000 H       1  UNL1        0.0273
     43 H           6.9418   -0.2332    0.0000 H       1  UNL1        0.0372
     44 H           7.1678   -2.4520    0.0000 H       1  UNL1        0.0272
     45 H           7.6554   -1.7807    0.0000 H       1  UNL1        0.0272
     46 H           3.4174   -2.4236    0.0000 H       1  UNL1        0.0296
     47 H           4.1077   -2.8221    0.0000 H       1  UNL1        0.0296
     48 H           3.0250   -0.9470    0.0000 H       1  UNL1        0.0311
     49 H           3.0250   -1.7440    0.0000 H       1  UNL1        0.0311
     50 H           5.9750   -0.0120    0.0000 H       1  UNL1        0.0272
     51 H           5.9750    0.7851    0.0000 H       1  UNL1        0.0272
     52 H           5.3675   -3.3293    0.0000 H       1  UNL1        0.0257
     53 H           6.2410   -3.2529    0.0000 H       1  UNL1        0.0257
     54 H           6.1646   -2.3794    0.0000 H       1  UNL1        0.0257
     55 H           4.4631   -3.5215    0.0000 H       1  UNL1        0.2102
     56 H           6.6701    0.7540    0.0000 H       1  UNL1        0.2098
     57 H           4.5250    1.6511    0.0000 H       1  UNL1        0.0287
     58 H           4.5250    0.8540    0.0000 H       1  UNL1        0.0287
     59 H           7.4715    1.2940    0.0000 H       1  UNL1        0.0746
     60 H           7.1474    0.5659    0.0000 H       1  UNL1        0.0746
     61 H           8.8262   -1.2811    0.0000 H       1  UNL1        0.0618
     62 H           5.9750    1.7200    0.0000 H       1  UNL1        0.0557
     63 H           5.9750    2.5171    0.0000 H       1  UNL1        0.0557
     64 H           4.5369    0.9426    0.0000 H       1  UNL1        0.0278
     65 H           4.3100    1.7895    0.0000 H       1  UNL1        0.0278
     66 H           3.4631    1.5626    0.0000 H       1  UNL1        0.0278
     67 H           2.1900   -0.1504    0.0000 H       1  UNL1        0.1078
     68 H           9.5056    0.5399    0.0000 H       1  UNL1        0.0618
     69 H           5.3100    3.5215    0.0000 H       1  UNL1        0.2094
     70 H          10.5488   -1.1000    0.0000 H       1  UNL1        0.0620
     71 H           9.6213    2.4053    0.0000 H       1  UNL1        0.0342
     72 H           9.7584    3.2713    0.0000 H       1  UNL1        0.0342
     73 H           8.8924    3.4085    0.0000 H       1  UNL1        0.0342
     74 H          11.8598   -0.8164    0.0000 H       1  UNL1        0.0316
     75 H          12.6525   -0.7331    0.0000 H       1  UNL1        0.0316
     76 H          11.6900    1.4633    0.0000 H       1  UNL1        0.0537
     77 H          10.6221    1.3511    0.0000 H       1  UNL1        0.0537
     78 H          13.3622    0.7994    0.0000 H       1  UNL1        0.0311
     79 H          12.5696    0.7161    0.0000 H       1  UNL1        0.0311
     80 H          13.9939   -0.7379    0.0000 H       1  UNL1        0.0572
     81 H          15.3995   -0.5067    0.0000 H       1  UNL1        0.0274
     82 H          15.2502    1.5258    0.0000 H       1  UNL1        0.0274
     83 H          14.5688    2.0776    0.0000 H       1  UNL1        0.0274
     84 H          14.0170    1.3962    0.0000 H       1  UNL1        0.0274
     85 H          16.2181   -0.1925    0.0000 H       1  UNL1        0.0274
     86 H          15.9038    0.6261    0.0000 H       1  UNL1        0.0274
@<TRIPOS>BOND
     1     8     1    1
     2     1    55    1
     3    10     2    1
     4     2    56    1
     5     3    22    1
     6     3    29    1
     7     4    24    1
     8     4    69    1
     9     5    26    2
    10     6    29    2
    11     7     8    1
    12     7     9    1
    13     7    10    1
    14     7    11    1
    15     8    14    1
    16     8    18    1
    17     9    15    1
    18     9    17    1
    19     9    39    1
    20    10    12    1
    21    10    40    1
    22    11    13    1
    23    11    41    1
    24    11    42    1
    25    12    13    1
    26    12    19    1
    27    12    43    1
    28    13    44    1
    29    13    45    1
    30    14    16    1
    31    14    46    1
    32    14    47    1
    33    15    16    1
    34    15    21    2
    35    16    48    1
    36    16    49    1
    37    17    20    1
    38    17    50    1
    39    17    51    1
    40    18    52    1
    41    18    53    1
    42    18    54    1
    43    19    22    1
    44    19    23    2
    45    20    24    1
    46    20    57    1
    47    20    58    1
    48    21    25    1
    49    21    26    1
    50    22    59    1
    51    22    60    1
    52    23    27    1
    53    23    61    1
    54    24    62    1
    55    24    63    1
    56    25    64    1
    57    25    65    1
    58    25    66    1
    59    26    67    1
    60    27    28    2
    61    27    68    1
    62    28    30    1
    63    28    70    1
    64    29    31    1
    65    30    32    1
    66    30    33    2
    67    31    71    1
    68    31    72    1
    69    31    73    1
    70    32    34    1
    71    32    74    1
    72    32    75    1
    73    33    76    1
    74    33    77    1
    75    34    35    1
    76    34    78    1
    77    34    79    1
    78    35    36    2
    79    35    80    1
    80    36    37    1
    81    36    38    1
    82    37    81    1
    83    37    85    1
    84    37    86    1
    85    38    82    1
    86    38    83    1
    87    38    84    1
