@<TRIPOS>MOLECULE
IMPHY017580
 52 53 0 0 0
SMALL
GASTEIGER

@<TRIPOS>ATOM
      1 O           4.6760    2.0485    0.0000 O.3     1  UNL1       -0.3872
      2 O           3.8100   -1.4515    0.0000 O.3     1  UNL1       -0.4611
      3 O           7.3451    1.5313    0.0000 O.3     1  UNL1       -0.3944
      4 O           2.3100    2.4145    0.0000 O.3     1  UNL1       -0.3946
      5 O           2.0780   -1.4515    0.0000 O.2     1  UNL1       -0.2512
      6 C           4.6760    1.0485    0.0000 C.3     1  UNL1        0.0853
      7 C           4.6760    0.0485    0.0000 C.3     1  UNL1        0.0310
      8 C           5.6222    1.3532    0.0000 C.3     1  UNL1        0.0210
      9 C           5.6222   -0.2562    0.0000 C.3     1  UNL1       -0.0254
     10 C           6.2058    0.5485    0.0000 C.3     1  UNL1       -0.0372
     11 C           3.8100    1.5485    0.0000 C.3     1  UNL1        0.0147
     12 C           3.8100   -0.4515    0.0000 C.3     1  UNL1        0.1092
     13 C           2.9440    1.0485    0.0000 C.3     1  UNL1       -0.0330
     14 C           2.9440    0.0485    0.0000 C.3     1  UNL1       -0.0123
     15 C           6.4323    1.9396    0.0000 C.3     1  UNL1        0.0522
     16 C           5.3149    2.3048    0.0000 C.3     1  UNL1       -0.0548
     17 C           6.4323   -0.8426    0.0000 C.3     1  UNL1       -0.0593
     18 C           5.3149   -1.2078    0.0000 C.3     1  UNL1       -0.0593
     19 C           3.3100    2.4145    0.0000 C.3     1  UNL1        0.0499
     20 C           2.0780    1.5485    0.0000 C.3     1  UNL1       -0.0619
     21 C           2.9440   -1.9515    0.0000 C.2     1  UNL1        0.3042
     22 C           2.9440   -2.9515    0.0000 C.3     1  UNL1        0.0332
     23 H           4.7660   -0.7967    0.0000 H       1  UNL1        0.0370
     24 H           6.6667    0.1338    0.0000 H       1  UNL1        0.0277
     25 H           6.6667    0.9632    0.0000 H       1  UNL1        0.0277
     26 H           4.2484    1.9869    0.0000 H       1  UNL1        0.0354
     27 H           4.3469   -0.7615    0.0000 H       1  UNL1        0.0738
     28 H           2.4070    0.7385    0.0000 H       1  UNL1        0.0304
     29 H           2.3334    0.1562    0.0000 H       1  UNL1        0.0304
     30 H           2.7319   -0.5341    0.0000 H       1  UNL1        0.0304
     31 H           6.7799    2.4530    0.0000 H       1  UNL1        0.0563
     32 H           5.9870    2.3711    0.0000 H       1  UNL1        0.0563
     33 H           5.9049    2.4954    0.0000 H       1  UNL1        0.0237
     34 H           5.1243    2.8948    0.0000 H       1  UNL1        0.0237
     35 H           4.7249    2.1143    0.0000 H       1  UNL1        0.0237
     36 H           6.0687   -1.3448    0.0000 H       1  UNL1        0.0235
     37 H           6.9345   -1.2062    0.0000 H       1  UNL1        0.0235
     38 H           6.7958   -0.3404    0.0000 H       1  UNL1        0.0235
     39 H           4.7249   -1.0172    0.0000 H       1  UNL1        0.0235
     40 H           5.1243   -1.7978    0.0000 H       1  UNL1        0.0235
     41 H           5.9049   -1.3984    0.0000 H       1  UNL1        0.0235
     42 H           3.8926    2.6266    0.0000 H       1  UNL1        0.0561
     43 H           3.2023    3.0251    0.0000 H       1  UNL1        0.0561
     44 H           4.3660    2.5855    0.0000 H       1  UNL1        0.2102
     45 H           2.3880    2.0855    0.0000 H       1  UNL1        0.0233
     46 H           1.5410    1.8585    0.0000 H       1  UNL1        0.0233
     47 H           1.7680    1.0116    0.0000 H       1  UNL1        0.0233
     48 H           7.8473    1.8949    0.0000 H       1  UNL1        0.2094
     49 H           2.0000    2.9515    0.0000 H       1  UNL1        0.2094
     50 H           2.3240   -2.9515    0.0000 H       1  UNL1        0.0342
     51 H           2.9440   -3.5715    0.0000 H       1  UNL1        0.0342
     52 H           3.5640   -2.9515    0.0000 H       1  UNL1        0.0342
@<TRIPOS>BOND
     1     6     1    1
     2     1    44    1
     3    12     2    1
     4     2    21    1
     5     3    15    1
     6     3    48    1
     7     4    19    1
     8     4    49    1
     9     5    21    2
    10     6     7    1
    11     6     8    1
    12     6    11    1
    13     7     9    1
    14     7    12    1
    15     7    23    1
    16     8    10    1
    17     8    15    1
    18     8    16    1
    19     9    10    1
    20     9    17    1
    21     9    18    1
    22    10    24    1
    23    10    25    1
    24    11    13    1
    25    11    19    1
    26    11    26    1
    27    12    14    1
    28    12    27    1
    29    13    14    1
    30    13    20    1
    31    13    28    1
    32    14    29    1
    33    14    30    1
    34    15    31    1
    35    15    32    1
    36    16    33    1
    37    16    34    1
    38    16    35    1
    39    17    36    1
    40    17    37    1
    41    17    38    1
    42    18    39    1
    43    18    40    1
    44    18    41    1
    45    19    42    1
    46    19    43    1
    47    20    45    1
    48    20    46    1
    49    20    47    1
    50    21    22    1
    51    22    50    1
    52    22    51    1
    53    22    52    1
