@<TRIPOS>MOLECULE
IMPHY017862
 54 54 0 0 0
SMALL
GASTEIGER

@<TRIPOS>ATOM
      1 C           4.5981    1.7010    0.0000 C.3     1  UNL1       -0.0112
      2 C           4.5981   -0.2990    0.0000 C.3     1  UNL1       -0.0407
      3 C           3.7320    1.2010    0.0000 C.3     1  UNL1       -0.0437
      4 C           5.4641    1.2010    0.0000 C.3     1  UNL1       -0.0437
      5 C           3.7320    0.2010    0.0000 C.3     1  UNL1       -0.0494
      6 C           5.4641    0.2010    0.0000 C.3     1  UNL1       -0.0494
      7 C           5.0981    2.5670    0.0000 C.3     1  UNL1       -0.0405
      8 C           4.5981   -1.2990    0.0000 C.3     1  UNL1       -0.0468
      9 C           4.0981    2.5670    0.0000 C.2     1  UNL1       -0.0849
     10 C           6.0981    2.5670    0.0000 C.3     1  UNL1       -0.0337
     11 C           3.7320   -1.7990    0.0000 C.3     1  UNL1       -0.0343
     12 C           3.0981    2.5670    0.0000 C.2     1  UNL1       -0.1021
     13 C           6.5981    3.4330    0.0000 C.2     1  UNL1       -0.0853
     14 C           3.7320   -2.7990    0.0000 C.2     1  UNL1       -0.0853
     15 C           7.5981    3.4330    0.0000 C.2     1  UNL1       -0.0796
     16 C           2.8660   -3.2990    0.0000 C.2     1  UNL1       -0.0796
     17 C           8.0981    4.2990    0.0000 C.3     1  UNL1       -0.0440
     18 C           8.0981    2.5670    0.0000 C.3     1  UNL1       -0.0440
     19 C           2.8660   -4.2990    0.0000 C.3     1  UNL1       -0.0440
     20 C           2.0000   -2.7990    0.0000 C.3     1  UNL1       -0.0440
     21 H           5.1350   -0.6090    0.0000 H       1  UNL1        0.0301
     22 H           3.5200    1.7836    0.0000 H       1  UNL1        0.0274
     23 H           3.1215    1.0933    0.0000 H       1  UNL1        0.0274
     24 H           6.0747    1.0933    0.0000 H       1  UNL1        0.0274
     25 H           5.6762    1.7836    0.0000 H       1  UNL1        0.0274
     26 H           3.1215    0.3086    0.0000 H       1  UNL1        0.0268
     27 H           3.5200   -0.3816    0.0000 H       1  UNL1        0.0268
     28 H           5.6762   -0.3816    0.0000 H       1  UNL1        0.0268
     29 H           6.0747    0.3086    0.0000 H       1  UNL1        0.0268
     30 H           5.2057    3.1776    0.0000 H       1  UNL1        0.0277
     31 H           4.5155    2.7790    0.0000 H       1  UNL1        0.0277
     32 H           4.8101   -1.8816    0.0000 H       1  UNL1        0.0271
     33 H           5.2087   -1.1914    0.0000 H       1  UNL1        0.0271
     34 H           4.4081    3.1039    0.0000 H       1  UNL1        0.0572
     35 H           5.9904    1.9564    0.0000 H       1  UNL1        0.0308
     36 H           6.6807    2.3549    0.0000 H       1  UNL1        0.0308
     37 H           3.5200   -1.2164    0.0000 H       1  UNL1        0.0307
     38 H           3.1215   -1.9067    0.0000 H       1  UNL1        0.0307
     39 H           2.7881    3.1039    0.0000 H       1  UNL1        0.0532
     40 H           2.7881    2.0300    0.0000 H       1  UNL1        0.0532
     41 H           6.2881    3.9700    0.0000 H       1  UNL1        0.0571
     42 H           4.2690   -3.1090    0.0000 H       1  UNL1        0.0571
     43 H           8.6350    3.9890    0.0000 H       1  UNL1        0.0274
     44 H           8.4081    4.8360    0.0000 H       1  UNL1        0.0274
     45 H           7.5611    4.6090    0.0000 H       1  UNL1        0.0274
     46 H           7.5611    2.2570    0.0000 H       1  UNL1        0.0274
     47 H           8.4081    2.0300    0.0000 H       1  UNL1        0.0274
     48 H           8.6350    2.8770    0.0000 H       1  UNL1        0.0274
     49 H           2.2460   -4.2990    0.0000 H       1  UNL1        0.0274
     50 H           2.8660   -4.9190    0.0000 H       1  UNL1        0.0274
     51 H           3.4860   -4.2990    0.0000 H       1  UNL1        0.0274
     52 H           2.3100   -2.2621    0.0000 H       1  UNL1        0.0274
     53 H           1.4631   -2.4890    0.0000 H       1  UNL1        0.0274
     54 H           1.6900   -3.3360    0.0000 H       1  UNL1        0.0274
@<TRIPOS>BOND
     1     1     3    1
     2     1     4    1
     3     1     7    1
     4     1     9    1
     5     2     5    1
     6     2     6    1
     7     2     8    1
     8     2    21    1
     9     3     5    1
    10     3    22    1
    11     3    23    1
    12     4     6    1
    13     4    24    1
    14     4    25    1
    15     5    26    1
    16     5    27    1
    17     6    28    1
    18     6    29    1
    19     7    10    1
    20     7    30    1
    21     7    31    1
    22     8    11    1
    23     8    32    1
    24     8    33    1
    25     9    12    2
    26     9    34    1
    27    10    13    1
    28    10    35    1
    29    10    36    1
    30    11    14    1
    31    11    37    1
    32    11    38    1
    33    12    39    1
    34    12    40    1
    35    13    15    2
    36    13    41    1
    37    14    16    2
    38    14    42    1
    39    15    17    1
    40    15    18    1
    41    16    19    1
    42    16    20    1
    43    17    43    1
    44    17    44    1
    45    17    45    1
    46    18    46    1
    47    18    47    1
    48    18    48    1
    49    19    49    1
    50    19    50    1
    51    19    51    1
    52    20    52    1
    53    20    53    1
    54    20    54    1
