@<TRIPOS>MOLECULE
IMPHY005097
 43 45 0 0 0
SMALL
GASTEIGER

@<TRIPOS>ATOM
      1 O           2.0000    0.6791    0.0000 O.3     1  UNL1       -0.4914
      2 O           2.0000    2.6791    0.0000 O.3     1  UNL1       -0.4914
      3 O           8.9212   -2.3954    0.0000 O.3     1  UNL1       -0.4915
      4 O           7.1777   -3.3753    0.0000 O.3     1  UNL1       -0.5033
      5 N           6.3981    1.1583    0.0000 N.ar    1  UNL1       -0.2589
      6 C           4.5981    1.1791    0.0000 C.ar    1  UNL1        0.0074
      7 C           5.4920    0.6444    0.0000 C.ar    1  UNL1        0.0534
      8 C           5.4804   -0.3555    0.0000 C.3     1  UNL1        0.0155
      9 C           4.5981    2.1791    0.0000 C.ar    1  UNL1       -0.0110
     10 C           6.3406   -0.8655    0.0000 C.ar    1  UNL1       -0.0379
     11 C           3.7320    0.6791    0.0000 C.ar    1  UNL1       -0.0069
     12 C           3.7320    2.6791    0.0000 C.ar    1  UNL1       -0.0085
     13 C           2.8660    1.1791    0.0000 C.ar    1  UNL1        0.1621
     14 C           5.4920    2.7138    0.0000 C.ar    1  UNL1       -0.0357
     15 C           2.8660    2.1791    0.0000 C.ar    1  UNL1        0.1621
     16 C           6.3291   -1.8654    0.0000 C.ar    1  UNL1       -0.0130
     17 C           7.2124   -0.3755    0.0000 C.ar    1  UNL1       -0.0545
     18 C           6.3981    2.1999    0.0000 C.ar    1  UNL1        0.0285
     19 C           7.1893   -2.3754    0.0000 C.ar    1  UNL1        0.1587
     20 C           8.0726   -0.8855    0.0000 C.ar    1  UNL1       -0.0160
     21 C           8.0610   -1.8854    0.0000 C.ar    1  UNL1        0.1613
     22 C           2.0000   -0.3209    0.0000 C.3     1  UNL1        0.0790
     23 C           2.0000    3.6791    0.0000 C.3     1  UNL1        0.0790
     24 C           9.7930   -1.9055    0.0000 C.3     1  UNL1        0.0790
     25 H           4.8712   -0.2408    0.0000 H       1  UNL1        0.0377
     26 H           5.2617   -0.9356    0.0000 H       1  UNL1        0.0377
     27 H           3.7320    0.0591    0.0000 H       1  UNL1        0.0662
     28 H           3.7320    3.2991    0.0000 H       1  UNL1        0.0661
     29 H           5.4848    3.3337    0.0000 H       1  UNL1        0.0639
     30 H           5.7886   -2.1692    0.0000 H       1  UNL1        0.0658
     31 H           7.2196    0.2444    0.0000 H       1  UNL1        0.0622
     32 H           6.9338    2.5120    0.0000 H       1  UNL1        0.0830
     33 H           8.6131   -0.5817    0.0000 H       1  UNL1        0.0655
     34 H           1.3800   -0.3209    0.0000 H       1  UNL1        0.0660
     35 H           2.0000   -0.9409    0.0000 H       1  UNL1        0.0660
     36 H           2.6200   -0.3209    0.0000 H       1  UNL1        0.0660
     37 H           2.6200    3.6791    0.0000 H       1  UNL1        0.0660
     38 H           2.0000    4.2991    0.0000 H       1  UNL1        0.0660
     39 H           1.3800    3.6791    0.0000 H       1  UNL1        0.0660
     40 H           6.6372   -3.6791    0.0000 H       1  UNL1        0.2923
     41 H          10.0967   -2.4460    0.0000 H       1  UNL1        0.0660
     42 H          10.3334   -1.6017    0.0000 H       1  UNL1        0.0660
     43 H           9.4892   -1.3650    0.0000 H       1  UNL1        0.0660
@<TRIPOS>BOND
     1     1    13    1
     2     1    22    1
     3     2    15    1
     4     2    23    1
     5     3    21    1
     6     3    24    1
     7     4    19    1
     8     4    40    1
     9     5     7   ar
    10     5    18   ar
    11     6     7   ar
    12     6     9   ar
    13     6    11   ar
    14     7     8    1
    15     8    10    1
    16     8    25    1
    17     8    26    1
    18     9    12   ar
    19     9    14   ar
    20    10    16   ar
    21    10    17   ar
    22    11    13   ar
    23    11    27    1
    24    12    15   ar
    25    12    28    1
    26    13    15   ar
    27    14    18   ar
    28    14    29    1
    29    16    19   ar
    30    16    30    1
    31    17    20   ar
    32    17    31    1
    33    18    32    1
    34    19    21   ar
    35    20    21   ar
    36    20    33    1
    37    22    34    1
    38    22    35    1
    39    22    36    1
    40    23    37    1
    41    23    38    1
    42    23    39    1
    43    24    41    1
    44    24    42    1
    45    24    43    1
