@<TRIPOS>MOLECULE
IMPHY010626
 19 21 0 0 0
SMALL
GASTEIGER

@<TRIPOS>ATOM
      1 O           7.6255    0.9840    0.0000 O.3     1  UNL1       -0.4444
      2 O           5.9721    1.5002    0.0000 O.2     1  UNL1       -0.2431
      3 N           4.5274    0.1658    0.0000 N.ar    1  UNL1       -0.3518
      4 N           7.0547   -0.9584    0.0000 N.ar    1  UNL1       -0.2359
      5 C           5.0274   -1.3731    0.0000 C.ar    1  UNL1        0.0202
      6 C           4.0274   -1.3731    0.0000 C.ar    1  UNL1        0.0171
      7 C           5.3364   -0.4220    0.0000 C.ar    1  UNL1        0.0810
      8 C           3.7183   -0.4220    0.0000 C.ar    1  UNL1        0.0566
      9 C           6.3518   -0.1898    0.0000 C.ar    1  UNL1        0.1722
     10 C           5.7123   -2.1578    0.0000 C.ar    1  UNL1        0.0222
     11 C           3.3424   -2.1578    0.0000 C.ar    1  UNL1        0.0015
     12 C           2.7029   -0.1898    0.0000 C.ar    1  UNL1        0.0170
     13 C           2.3219   -1.9491    0.0000 C.ar    1  UNL1        0.0001
     14 C           2.0000   -0.9584    0.0000 C.ar    1  UNL1        0.0015
     15 C           6.7328   -1.9491    0.0000 C.ar    1  UNL1        0.0992
     16 C           6.6498    0.7648    0.0000 C.2     1  UNL1        0.3606
     17 C           7.9235    1.9386    0.0000 C.3     1  UNL1        0.2089
     18 C           8.8991    2.1578    0.0000 C.3     1  UNL1        0.0513
     19 H           4.5274    0.7858    0.0000 H       1  UNL1        0.1660
@<TRIPOS>BOND
     1     1    16    1
     2     1    17    1
     3     2    16    2
     4     3     7   ar
     5     3     8   ar
     6     3    19    1
     7     4     9   ar
     8     4    15   ar
     9     5     6   ar
    10     5     7   ar
    11     5    10   ar
    12     6     8   ar
    13     6    11   ar
    14     7     9   ar
    15     8    12   ar
    16     9    16    1
    17    10    15   ar
    18    11    13   ar
    19    12    14   ar
    20    13    14   ar
    21    17    18    1
