@<TRIPOS>MOLECULE
IMPHY010210
 67 71 0 0 0
SMALL
GASTEIGER

@<TRIPOS>ATOM
      1 O           5.4554   -0.2338    0.0000 O.3     1  UNL1       -0.4575
      2 O           7.0506    4.5968    0.0000 O.2     1  UNL1       -0.2968
      3 O           6.5375   -2.7658    0.0000 O.3     1  UNL1       -0.4377
      4 O           5.5673   -1.3310    0.0000 O.2     1  UNL1       -0.2505
      5 O           4.4852    1.2010    0.0000 O.2     1  UNL1       -0.2450
      6 O           5.7800   -4.3234    0.0000 O.3     1  UNL1       -0.3600
      7 C           7.9845    1.5051    0.0000 C.3     1  UNL1       -0.0192
      8 C           8.0784    0.4677    0.0000 C.3     1  UNL1       -0.0192
      9 C           7.0835    1.9390    0.0000 C.3     1  UNL1       -0.0248
     10 C           7.8777    2.6819    0.0000 C.3     1  UNL1       -0.0345
     11 C           7.2223   -0.1256    0.0000 C.3     1  UNL1        0.0150
     12 C           8.4845    3.6958    0.0000 C.3     1  UNL1        0.0267
     13 C           8.8855    1.9390    0.0000 C.3     1  UNL1       -0.0457
     14 C           9.1080    2.9140    0.0000 C.3     1  UNL1       -0.0404
     15 C           6.2140    1.3656    0.0000 C.3     1  UNL1       -0.0116
     16 C           6.2838    0.3263    0.0000 C.3     1  UNL1        0.1078
     17 C           9.0665    0.0197    0.0000 C.3     1  UNL1       -0.0467
     18 C           6.8610    2.9140    0.0000 C.3     1  UNL1        0.0098
     19 C           7.2950   -1.2082    0.0000 C.3     1  UNL1        0.0632
     20 C           7.4845    3.6958    0.0000 C.2     1  UNL1        0.1395
     21 C           8.9002    1.0374    0.0000 C.3     1  UNL1       -0.0587
     22 C           9.1643   -1.0609    0.0000 C.3     1  UNL1       -0.0518
     23 C           8.2726   -1.6790    0.0000 C.3     1  UNL1       -0.0397
     24 C           8.7070    4.6707    0.0000 C.3     1  UNL1       -0.0528
     25 C           6.4666   -1.7683    0.0000 C.2     1  UNL1        0.3126
     26 C           4.5561    0.2035    0.0000 C.2     1  UNL1        0.3395
     27 C           3.7277   -0.3566    0.0000 C.ar    1  UNL1        0.0590
     28 C           5.7091   -3.3259    0.0000 C.3     1  UNL1        0.1912
     29 C           2.8284    0.0807    0.0000 C.ar    1  UNL1       -0.0478
     30 C           3.7986   -1.3541    0.0000 C.ar    1  UNL1       -0.0478
     31 C           2.0000   -0.4794    0.0000 C.ar    1  UNL1       -0.0610
     32 C           2.9702   -1.9142    0.0000 C.ar    1  UNL1       -0.0610
     33 C           2.0709   -1.4769    0.0000 C.ar    1  UNL1       -0.0617
     34 H           6.2947    2.2556    0.0000 H       1  UNL1        0.0311
     35 H           7.4699    3.1489    0.0000 H       1  UNL1        0.0280
     36 H           7.3076    2.4381    0.0000 H       1  UNL1        0.0280
     37 H           6.5181   -0.6018    0.0000 H       1  UNL1        0.0350
     38 H           9.0234    1.3346    0.0000 H       1  UNL1        0.0271
     39 H           9.5055    1.9390    0.0000 H       1  UNL1        0.0271
     40 H           9.6666    2.6449    0.0000 H       1  UNL1        0.0275
     41 H           9.4946    3.3987    0.0000 H       1  UNL1        0.0275
     42 H           5.9662    1.9340    0.0000 H       1  UNL1        0.0304
     43 H           5.6116    1.2188    0.0000 H       1  UNL1        0.0304
     44 H           5.5201    0.6995    0.0000 H       1  UNL1        0.0737
     45 H           9.6845   -0.0309    0.0000 H       1  UNL1        0.0271
     46 H           9.2221    0.6199    0.0000 H       1  UNL1        0.0271
     47 H           6.4745    3.3987    0.0000 H       1  UNL1        0.0345
     48 H           6.3024    2.6449    0.0000 H       1  UNL1        0.0345
     49 H           6.5313   -0.8350    0.0000 H       1  UNL1        0.0417
     50 H           9.2534    0.5279    0.0000 H       1  UNL1        0.0235
     51 H           9.4098    1.3906    0.0000 H       1  UNL1        0.0235
     52 H           8.5470    1.5470    0.0000 H       1  UNL1        0.0235
     53 H           9.4251   -1.6234    0.0000 H       1  UNL1        0.0266
     54 H           9.7631   -0.9002    0.0000 H       1  UNL1        0.0266
     55 H           7.9119   -2.1833    0.0000 H       1  UNL1        0.0273
     56 H           8.7077   -2.1206    0.0000 H       1  UNL1        0.0273
     57 H           9.3115    4.5328    0.0000 H       1  UNL1        0.0239
     58 H           8.8450    5.2752    0.0000 H       1  UNL1        0.0239
     59 H           8.1026    4.8087    0.0000 H       1  UNL1        0.0239
     60 H           5.4563   -2.7598    0.0000 H       1  UNL1        0.1016
     61 H           5.1077   -3.4766    0.0000 H       1  UNL1        0.1016
     62 H           2.7844    0.6992    0.0000 H       1  UNL1        0.0626
     63 H           4.3561   -1.6252    0.0000 H       1  UNL1        0.0626
     64 H           5.2664   -4.6707    0.0000 H       1  UNL1        0.2133
     65 H           1.4424   -0.2082    0.0000 H       1  UNL1        0.0618
     66 H           3.0141   -2.5327    0.0000 H       1  UNL1        0.0618
     67 H           1.5573   -1.8242    0.0000 H       1  UNL1        0.0618
@<TRIPOS>BOND
     1     1    16    1
     2     1    26    1
     3     2    20    2
     4     3    25    1
     5     3    28    1
     6     4    25    2
     7     5    26    2
     8     6    28    1
     9     6    64    1
    10     7     8    1
    11     7     9    1
    12     7    10    1
    13     7    13    1
    14     8    11    1
    15     8    17    1
    16     8    21    1
    17     9    15    1
    18     9    18    1
    19     9    34    1
    20    10    12    1
    21    10    35    1
    22    10    36    1
    23    11    16    1
    24    11    19    1
    25    11    37    1
    26    12    14    1
    27    12    20    1
    28    12    24    1
    29    13    14    1
    30    13    38    1
    31    13    39    1
    32    14    40    1
    33    14    41    1
    34    15    16    1
    35    15    42    1
    36    15    43    1
    37    16    44    1
    38    17    22    1
    39    17    45    1
    40    17    46    1
    41    18    20    1
    42    18    47    1
    43    18    48    1
    44    19    23    1
    45    19    25    1
    46    19    49    1
    47    21    50    1
    48    21    51    1
    49    21    52    1
    50    22    23    1
    51    22    53    1
    52    22    54    1
    53    23    55    1
    54    23    56    1
    55    24    57    1
    56    24    58    1
    57    24    59    1
    58    26    27    1
    59    27    29   ar
    60    27    30   ar
    61    28    60    1
    62    28    61    1
    63    29    31   ar
    64    29    62    1
    65    30    32   ar
    66    30    63    1
    67    31    33   ar
    68    31    65    1
    69    32    33   ar
    70    32    66    1
    71    33    67    1
