@<TRIPOS>MOLECULE
IMPHY000856
 134 141 0 0 0
SMALL
GASTEIGER

@<TRIPOS>ATOM
      1 O          10.8604   -1.1205    0.0000 O.3     1  UNL1       -0.3450
      2 O           9.3125   -2.3287    0.0000 O.3     1  UNL1       -0.3642
      3 O           7.7331    4.0281    0.0000 O.3     1  UNL1       -0.3445
      4 O           9.5646    7.1446    0.0000 O.3     1  UNL1       -0.3914
      5 O           6.8671    5.5281    0.0000 O.3     1  UNL1       -0.3461
      6 O           6.0010    3.0281    0.0000 O.3     1  UNL1       -0.3378
      7 O          13.4468   -4.2600    0.0000 O.3     1  UNL1       -0.3484
      8 O           4.2690    4.0281    0.0000 O.3     1  UNL1       -0.3864
      9 O           4.2690    6.0281    0.0000 O.3     1  UNL1       -0.3869
     10 O           4.2690    3.0281    0.0000 O.3     1  UNL1       -0.3431
     11 O          14.9306   -5.1535    0.0000 O.3     1  UNL1       -0.3405
     12 O           6.0010    1.0281    0.0000 O.3     1  UNL1       -0.3841
     13 O          14.4785   -2.5467    0.0000 O.3     1  UNL1       -0.3841
     14 O           4.2690    0.0281    0.0000 O.3     1  UNL1       -0.3864
     15 O           2.5369    1.0281    0.0000 O.3     1  UNL1       -0.3866
     16 O          16.4782   -2.5835    0.0000 O.3     1  UNL1       -0.3864
     17 O          17.4461   -4.3337    0.0000 O.3     1  UNL1       -0.3865
     18 O          15.8986   -6.9037    0.0000 O.3     1  UNL1       -0.3924
     19 C           9.4983    0.9480    0.0000 C.3     1  UNL1       -0.0233
     20 C          10.3738    1.4312    0.0000 C.3     1  UNL1       -0.0295
     21 C           9.6887   -0.0277    0.0000 C.3     1  UNL1       -0.0015
     22 C          10.3930    2.4310    0.0000 C.3     1  UNL1       -0.0305
     23 C           9.5368    2.9476    0.0000 C.3     1  UNL1       -0.0262
     24 C          10.6753   -0.1498    0.0000 C.3     1  UNL1        0.0660
     25 C          11.0978    0.7500    0.0000 C.3     1  UNL1       -0.0226
     26 C           8.6420    1.4646    0.0000 C.3     1  UNL1       -0.0467
     27 C           9.2726   -0.9240    0.0000 C.3     1  UNL1        0.0158
     28 C           8.6613    2.4644    0.0000 C.3     1  UNL1       -0.0486
     29 C           9.5408    3.9892    0.0000 C.3     1  UNL1        0.0184
     30 C           9.9952   -1.5980    0.0000 C.3     1  UNL1        0.1704
     31 C           8.6228    0.4648    0.0000 C.3     1  UNL1       -0.0590
     32 C          11.3126    2.9202    0.0000 C.3     1  UNL1       -0.0311
     33 C          10.4489    4.4996    0.0000 C.2     1  UNL1       -0.0624
     34 C           8.5991    4.5281    0.0000 C.3     1  UNL1        0.0734
     35 C          11.3407    3.9615    0.0000 C.2     1  UNL1       -0.0838
     36 C           8.2911   -1.1156    0.0000 C.3     1  UNL1       -0.0572
     37 C           8.6691    3.4993    0.0000 C.3     1  UNL1       -0.0532
     38 C          10.4792   -2.4731    0.0000 C.3     1  UNL1        0.0018
     39 C          10.4781    5.5842    0.0000 C.3     1  UNL1       -0.0049
     40 C           8.6033    5.6131    0.0000 C.3     1  UNL1        0.0007
     41 C           9.5491    6.1447    0.0000 C.3     1  UNL1        0.0613
     42 C          11.4790   -2.4915    0.0000 C.3     1  UNL1       -0.0435
     43 C           6.8671    4.5281    0.0000 C.3     1  UNL1        0.1882
     44 C          11.9630   -3.3666    0.0000 C.3     1  UNL1       -0.0201
     45 C           6.0010    4.0281    0.0000 C.3     1  UNL1        0.1406
     46 C          12.9628   -3.3850    0.0000 C.3     1  UNL1        0.0533
     47 C          11.4471   -4.2232    0.0000 C.3     1  UNL1       -0.0603
     48 C           5.1350    4.5281    0.0000 C.3     1  UNL1        0.1141
     49 C           6.0010    6.0281    0.0000 C.3     1  UNL1        0.0792
     50 C           5.1350    5.5281    0.0000 C.3     1  UNL1        0.1069
     51 C           5.1350    2.5281    0.0000 C.3     1  UNL1        0.1884
     52 C          14.4466   -4.2785    0.0000 C.3     1  UNL1        0.1879
     53 C           5.1350    1.5281    0.0000 C.3     1  UNL1        0.1341
     54 C          14.9625   -3.4218    0.0000 C.3     1  UNL1        0.1341
     55 C           4.2690    1.0281    0.0000 C.3     1  UNL1        0.1140
     56 C           3.4030    2.5281    0.0000 C.3     1  UNL1        0.0873
     57 C           3.4030    1.5281    0.0000 C.3     1  UNL1        0.1095
     58 C          15.9623   -3.4402    0.0000 C.3     1  UNL1        0.1141
     59 C          15.9304   -5.1719    0.0000 C.3     1  UNL1        0.1130
     60 C          16.4463   -4.3153    0.0000 C.3     1  UNL1        0.1119
     61 C           2.5369    3.0281    0.0000 C.3     1  UNL1       -0.0361
     62 C          16.4144   -6.0470    0.0000 C.3     1  UNL1        0.0730
     63 H          10.9452    1.6717    0.0000 H       1  UNL1        0.0310
     64 H           9.0732    0.0471    0.0000 H       1  UNL1        0.0335
     65 H          10.9214    2.1066    0.0000 H       1  UNL1        0.0310
     66 H          10.0773    3.2514    0.0000 H       1  UNL1        0.0313
     67 H          11.2904   -0.2273    0.0000 H       1  UNL1        0.0600
     68 H          11.6282    0.4290    0.0000 H       1  UNL1        0.0293
     69 H          11.4728    1.2438    0.0000 H       1  UNL1        0.0293
     70 H           8.0336    1.5840    0.0000 H       1  UNL1        0.0271
     71 H           8.4188    0.8862    0.0000 H       1  UNL1        0.0271
     72 H           8.8902   -0.4359    0.0000 H       1  UNL1        0.0354
     73 H           8.4605    3.0510    0.0000 H       1  UNL1        0.0268
     74 H           8.0488    2.3685    0.0000 H       1  UNL1        0.0268
     75 H           8.3232    1.0076    0.0000 H       1  UNL1        0.0235
     76 H           8.0800    0.1652    0.0000 H       1  UNL1        0.0235
     77 H           8.9224   -0.0780    0.0000 H       1  UNL1        0.0235
     78 H          11.5059    2.3311    0.0000 H       1  UNL1        0.0310
     79 H          11.9261    3.0098    0.0000 H       1  UNL1        0.0310
     80 H           8.0628    4.8391    0.0000 H       1  UNL1        0.0606
     81 H          11.8847    4.2590    0.0000 H       1  UNL1        0.0572
     82 H           8.1723   -0.5070    0.0000 H       1  UNL1        0.0234
     83 H           7.6826   -1.2343    0.0000 H       1  UNL1        0.0234
     84 H           8.4098   -1.7241    0.0000 H       1  UNL1        0.0234
     85 H           8.3653    4.0398    0.0000 H       1  UNL1        0.0239
     86 H           8.1286    3.1955    0.0000 H       1  UNL1        0.0239
     87 H           8.9728    2.9588    0.0000 H       1  UNL1        0.0239
     88 H           9.8928   -2.6744    0.0000 H       1  UNL1        0.0317
     89 H          10.5756   -3.0855    0.0000 H       1  UNL1        0.0317
     90 H          11.0859    5.4616    0.0000 H       1  UNL1        0.0335
     91 H          10.7029    6.1620    0.0000 H       1  UNL1        0.0335
     92 H           8.3965    6.1976    0.0000 H       1  UNL1        0.0315
     93 H           7.9920    5.5094    0.0000 H       1  UNL1        0.0315
     94 H          10.0914    6.4453    0.0000 H       1  UNL1        0.0597
     95 H           9.4932   -2.9218    0.0000 H       1  UNL1        0.2128
     96 H          12.0654   -2.2902    0.0000 H       1  UNL1        0.0270
     97 H          11.3826   -1.8790    0.0000 H       1  UNL1        0.0270
     98 H           6.8671    3.9081    0.0000 H       1  UNL1        0.0937
     99 H          11.3431   -3.3552    0.0000 H       1  UNL1        0.0320
    100 H          10.1062    7.4462    0.0000 H       1  UNL1        0.2098
    101 H           5.4641    3.7181    0.0000 H       1  UNL1        0.0675
    102 H          13.5492   -3.1837    0.0000 H       1  UNL1        0.0563
    103 H          12.8664   -2.7725    0.0000 H       1  UNL1        0.0563
    104 H          10.9160   -3.9034    0.0000 H       1  UNL1        0.0233
    105 H          11.1273   -4.7544    0.0000 H       1  UNL1        0.0233
    106 H          11.9783   -4.5431    0.0000 H       1  UNL1        0.0233
    107 H           4.5981    4.8381    0.0000 H       1  UNL1        0.0648
    108 H           6.3996    6.5030    0.0000 H       1  UNL1        0.0587
    109 H           5.6025    6.5030    0.0000 H       1  UNL1        0.0587
    110 H           5.1350    6.1481    0.0000 H       1  UNL1        0.0643
    111 H           5.1350    3.1481    0.0000 H       1  UNL1        0.0938
    112 H           3.7320    4.3381    0.0000 H       1  UNL1        0.2100
    113 H          14.1268   -4.8096    0.0000 H       1  UNL1        0.0937
    114 H           4.2690    6.6481    0.0000 H       1  UNL1        0.2100
    115 H           5.1350    0.9081    0.0000 H       1  UNL1        0.0671
    116 H          14.3426   -3.4104    0.0000 H       1  UNL1        0.0671
    117 H           3.7320    0.7181    0.0000 H       1  UNL1        0.0648
    118 H           3.4030    3.1481    0.0000 H       1  UNL1        0.0621
    119 H           2.8660    1.8381    0.0000 H       1  UNL1        0.0646
    120 H          16.5822   -3.4516    0.0000 H       1  UNL1        0.0648
    121 H          15.6106   -5.7031    0.0000 H       1  UNL1        0.0647
    122 H          16.7464   -4.8578    0.0000 H       1  UNL1        0.0647
    123 H           6.0010    0.4081    0.0000 H       1  UNL1        0.2101
    124 H          14.7983   -2.0156    0.0000 H       1  UNL1        0.2101
    125 H           2.8469    3.5650    0.0000 H       1  UNL1        0.0255
    126 H           2.0000    3.3381    0.0000 H       1  UNL1        0.0255
    127 H           2.2269    2.4912    0.0000 H       1  UNL1        0.0255
    128 H           3.7320   -0.2819    0.0000 H       1  UNL1        0.2100
    129 H          16.8819   -6.4542    0.0000 H       1  UNL1        0.0584
    130 H          16.8966   -5.6573    0.0000 H       1  UNL1        0.0584
    131 H           2.0000    1.3381    0.0000 H       1  UNL1        0.2100
    132 H          17.0981   -2.5949    0.0000 H       1  UNL1        0.2100
    133 H          17.7462   -4.8762    0.0000 H       1  UNL1        0.2100
    134 H          16.1986   -7.4462    0.0000 H       1  UNL1        0.2095
@<TRIPOS>BOND
     1     1    24    1
     2     1    30    1
     3     2    30    1
     4     2    95    1
     5     3    34    1
     6     3    43    1
     7     4    41    1
     8     4   100    1
     9     5    43    1
    10     5    49    1
    11     6    45    1
    12     6    51    1
    13     7    46    1
    14     7    52    1
    15     8    48    1
    16     8   112    1
    17     9    50    1
    18     9   114    1
    19    10    51    1
    20    10    56    1
    21    11    52    1
    22    11    59    1
    23    12    53    1
    24    12   123    1
    25    13    54    1
    26    13   124    1
    27    14    55    1
    28    14   128    1
    29    15    57    1
    30    15   131    1
    31    16    58    1
    32    16   132    1
    33    17    60    1
    34    17   133    1
    35    18    62    1
    36    18   134    1
    37    19    20    1
    38    19    21    1
    39    19    26    1
    40    19    31    1
    41    20    22    1
    42    20    25    1
    43    20    63    1
    44    21    24    1
    45    21    27    1
    46    21    64    1
    47    22    23    1
    48    22    32    1
    49    22    65    1
    50    23    28    1
    51    23    29    1
    52    23    66    1
    53    24    25    1
    54    24    67    1
    55    25    68    1
    56    25    69    1
    57    26    28    1
    58    26    70    1
    59    26    71    1
    60    27    30    1
    61    27    36    1
    62    27    72    1
    63    28    73    1
    64    28    74    1
    65    29    33    1
    66    29    34    1
    67    29    37    1
    68    30    38    1
    69    31    75    1
    70    31    76    1
    71    31    77    1
    72    32    35    1
    73    32    78    1
    74    32    79    1
    75    33    35    2
    76    33    39    1
    77    34    40    1
    78    34    80    1
    79    35    81    1
    80    36    82    1
    81    36    83    1
    82    36    84    1
    83    37    85    1
    84    37    86    1
    85    37    87    1
    86    38    42    1
    87    38    88    1
    88    38    89    1
    89    39    41    1
    90    39    90    1
    91    39    91    1
    92    40    41    1
    93    40    92    1
    94    40    93    1
    95    41    94    1
    96    42    44    1
    97    42    96    1
    98    42    97    1
    99    43    45    1
   100    43    98    1
   101    44    46    1
   102    44    47    1
   103    44    99    1
   104    45    48    1
   105    45   101    1
   106    46   102    1
   107    46   103    1
   108    47   104    1
   109    47   105    1
   110    47   106    1
   111    48    50    1
   112    48   107    1
   113    49    50    1
   114    49   108    1
   115    49   109    1
   116    50   110    1
   117    51    53    1
   118    51   111    1
   119    52    54    1
   120    52   113    1
   121    53    55    1
   122    53   115    1
   123    54    58    1
   124    54   116    1
   125    55    57    1
   126    55   117    1
   127    56    57    1
   128    56    61    1
   129    56   118    1
   130    57   119    1
   131    58    60    1
   132    58   120    1
   133    59    60    1
   134    59    62    1
   135    59   121    1
   136    60   122    1
   137    61   125    1
   138    61   126    1
   139    61   127    1
   140    62   129    1
   141    62   130    1
