@<TRIPOS>MOLECULE
IMPHY000921
 39 40 0 0 0
SMALL
GASTEIGER

@<TRIPOS>ATOM
      1 C           3.8660    0.5000    0.0000 C.3     1  UNL1        0.0003
      2 C           3.0000    1.0000    0.0000 C.3     1  UNL1       -0.0250
      3 C           4.7320    0.0000    0.0000 C.3     1  UNL1       -0.0392
      4 C           3.0000    2.0000    0.0000 C.3     1  UNL1       -0.0436
      5 C           3.0000    0.0000    0.0000 C.3     1  UNL1       -0.0247
      6 C           4.7320    1.0000    0.0000 C.2     1  UNL1       -0.0696
      7 C           2.0000    1.0000    0.0000 C.3     1  UNL1       -0.0590
      8 C           2.2340    0.3572    0.0000 C.3     1  UNL1       -0.0590
      9 C           3.8660    2.5000    0.0000 C.3     1  UNL1       -0.0340
     10 C           4.7320   -1.0000    0.0000 C.3     1  UNL1       -0.0312
     11 C           4.7320    2.0000    0.0000 C.2     1  UNL1       -0.0845
     12 C           3.0000   -1.0000    0.0000 C.2     1  UNL1       -0.0842
     13 C           3.8660   -1.5000    0.0000 C.2     1  UNL1       -0.0765
     14 C           5.5981    0.5000    0.0000 C.3     1  UNL1       -0.0432
     15 C           3.8660   -2.5000    0.0000 C.3     1  UNL1       -0.0438
     16 H           5.3426   -0.1077    0.0000 H       1  UNL1        0.0277
     17 H           4.9441    0.5826    0.0000 H       1  UNL1        0.0277
     18 H           2.7880    2.5826    0.0000 H       1  UNL1        0.0274
     19 H           2.3894    1.8923    0.0000 H       1  UNL1        0.0274
     20 H           2.7880    0.5826    0.0000 H       1  UNL1        0.0316
     21 H           2.3894   -0.1077    0.0000 H       1  UNL1        0.0316
     22 H           2.0000    1.6200    0.0000 H       1  UNL1        0.0235
     23 H           1.3800    1.0000    0.0000 H       1  UNL1        0.0235
     24 H           2.0000    0.3800    0.0000 H       1  UNL1        0.0235
     25 H           1.8354    0.8321    0.0000 H       1  UNL1        0.0235
     26 H           1.7590   -0.0414    0.0000 H       1  UNL1        0.0235
     27 H           2.6325   -0.1177    0.0000 H       1  UNL1        0.0235
     28 H           4.2646    2.9750    0.0000 H       1  UNL1        0.0308
     29 H           3.4675    2.9750    0.0000 H       1  UNL1        0.0308
     30 H           4.9441   -1.5826    0.0000 H       1  UNL1        0.0310
     31 H           5.3426   -0.8923    0.0000 H       1  UNL1        0.0310
     32 H           5.2690    2.3100    0.0000 H       1  UNL1        0.0572
     33 H           2.4631   -1.3100    0.0000 H       1  UNL1        0.0572
     34 H           5.2881   -0.0369    0.0000 H       1  UNL1        0.0275
     35 H           6.1350    0.1900    0.0000 H       1  UNL1        0.0275
     36 H           5.9081    1.0369    0.0000 H       1  UNL1        0.0275
     37 H           3.2460   -2.5000    0.0000 H       1  UNL1        0.0274
     38 H           3.8660   -3.1200    0.0000 H       1  UNL1        0.0274
     39 H           4.4860   -2.5000    0.0000 H       1  UNL1        0.0274
@<TRIPOS>BOND
     1     1     2    1
     2     1     3    1
     3     1     5    1
     4     1     6    1
     5     2     4    1
     6     2     7    1
     7     2     8    1
     8     3    10    1
     9     3    16    1
    10     3    17    1
    11     4     9    1
    12     4    18    1
    13     4    19    1
    14     5    12    1
    15     5    20    1
    16     5    21    1
    17     6    11    2
    18     6    14    1
    19     7    22    1
    20     7    23    1
    21     7    24    1
    22     8    25    1
    23     8    26    1
    24     8    27    1
    25     9    11    1
    26     9    28    1
    27     9    29    1
    28    10    13    1
    29    10    30    1
    30    10    31    1
    31    11    32    1
    32    12    13    2
    33    12    33    1
    34    13    15    1
    35    14    34    1
    36    14    35    1
    37    14    36    1
    38    15    37    1
    39    15    38    1
    40    15    39    1
