@<TRIPOS>MOLECULE
IMPHY006969
 26 26 0 0 0
SMALL
GASTEIGER

@<TRIPOS>ATOM
      1 S           8.4813   -0.8341    0.0000 S.3     1  UNL1       -0.0897
      2 S           9.2903   -0.2463    0.0000 S.3     1  UNL1       -0.0928
      3 O           2.5896    0.8341    0.0000 O.3     1  UNL1       -0.4806
      4 O           3.1249   -0.8132    0.0000 O.2     1  UNL1       -0.2510
      5 C           7.6723   -0.2463    0.0000 C.3     1  UNL1        0.0162
      6 C           6.7212   -0.5553    0.0000 C.3     1  UNL1       -0.0403
      7 C           7.9813    0.7048    0.0000 C.3     1  UNL1       -0.0305
      8 C           5.9781    0.1138    0.0000 C.3     1  UNL1       -0.0515
      9 C           5.0270   -0.1952    0.0000 C.3     1  UNL1       -0.0430
     10 C           8.9813    0.7048    0.0000 C.3     1  UNL1        0.0050
     11 C           4.2839    0.4739    0.0000 C.3     1  UNL1        0.0448
     12 C           3.3328    0.1649    0.0000 C.2     1  UNL1        0.3047
     13 H           7.5753   -0.8586    0.0000 H       1  UNL1        0.0421
     14 H           6.2326   -0.9370    0.0000 H       1  UNL1        0.0276
     15 H           7.0123   -1.1027    0.0000 H       1  UNL1        0.0276
     16 H           8.0461    1.3214    0.0000 H       1  UNL1        0.0284
     17 H           7.3748    0.8337    0.0000 H       1  UNL1        0.0284
     18 H           6.4666    0.4955    0.0000 H       1  UNL1        0.0266
     19 H           5.6870    0.6613    0.0000 H       1  UNL1        0.0266
     20 H           4.5384   -0.5769    0.0000 H       1  UNL1        0.0270
     21 H           5.3181   -0.7426    0.0000 H       1  UNL1        0.0270
     22 H           9.5877    0.8337    0.0000 H       1  UNL1        0.0385
     23 H           8.9165    1.3214    0.0000 H       1  UNL1        0.0385
     24 H           4.7724    0.8557    0.0000 H       1  UNL1        0.0377
     25 H           3.9928    1.0214    0.0000 H       1  UNL1        0.0377
     26 H           2.0000    0.6425    0.0000 H       1  UNL1        0.2951
@<TRIPOS>BOND
     1     1     2    1
     2     1     5    1
     3     2    10    1
     4     3    12    1
     5     3    26    1
     6     4    12    2
     7     5     6    1
     8     5     7    1
     9     5    13    1
    10     6     8    1
    11     6    14    1
    12     6    15    1
    13     7    10    1
    14     7    16    1
    15     7    17    1
    16     8     9    1
    17     8    18    1
    18     8    19    1
    19     9    11    1
    20     9    20    1
    21     9    21    1
    22    10    22    1
    23    10    23    1
    24    11    12    1
    25    11    24    1
    26    11    25    1
