@<TRIPOS>MOLECULE
IMPHY005500
 29 29 0 0 0
SMALL
GASTEIGER

@<TRIPOS>ATOM
      1 C           2.8660    0.0000    0.0000 C.3     1  UNL1       -0.0314
      2 C           3.7320    0.5000    0.0000 C.3     1  UNL1       -0.0494
      3 C           2.8660   -1.0000    0.0000 C.2     1  UNL1       -0.0693
      4 C           3.7320    1.5000    0.0000 C.3     1  UNL1       -0.0530
      5 C           2.0000   -1.5000    0.0000 C.3     1  UNL1       -0.0280
      6 C           2.0000   -2.5000    0.0000 C.3     1  UNL1       -0.0308
      7 C           4.5981    2.0000    0.0000 C.3     1  UNL1       -0.0559
      8 C           3.7320   -1.5000    0.0000 C.2     1  UNL1       -0.0628
      9 C           2.8660   -3.0000    0.0000 C.2     1  UNL1       -0.0837
     10 C           3.7320   -2.5000    0.0000 C.2     1  UNL1       -0.0657
     11 C           4.5981    3.0000    0.0000 C.3     1  UNL1       -0.0653
     12 H           2.6540    0.5826    0.0000 H       1  UNL1        0.0310
     13 H           2.2554   -0.1077    0.0000 H       1  UNL1        0.0310
     14 H           3.9441   -0.0826    0.0000 H       1  UNL1        0.0268
     15 H           4.3426    0.6077    0.0000 H       1  UNL1        0.0268
     16 H           3.5200    2.0826    0.0000 H       1  UNL1        0.0265
     17 H           3.1215    1.3923    0.0000 H       1  UNL1        0.0265
     18 H           1.7880   -0.9174    0.0000 H       1  UNL1        0.0313
     19 H           1.3894   -1.6077    0.0000 H       1  UNL1        0.0313
     20 H           1.3894   -2.3923    0.0000 H       1  UNL1        0.0310
     21 H           1.7880   -3.0826    0.0000 H       1  UNL1        0.0310
     22 H           4.8101    1.4174    0.0000 H       1  UNL1        0.0263
     23 H           5.2087    2.1077    0.0000 H       1  UNL1        0.0263
     24 H           4.2690   -1.1900    0.0000 H       1  UNL1        0.0617
     25 H           2.8660   -3.6200    0.0000 H       1  UNL1        0.0572
     26 H           4.2690   -2.8100    0.0000 H       1  UNL1        0.0614
     27 H           5.2181    3.0000    0.0000 H       1  UNL1        0.0230
     28 H           4.5981    3.6200    0.0000 H       1  UNL1        0.0230
     29 H           3.9781    3.0000    0.0000 H       1  UNL1        0.0230
@<TRIPOS>BOND
     1     1     2    1
     2     1     3    1
     3     1    12    1
     4     1    13    1
     5     2     4    1
     6     2    14    1
     7     2    15    1
     8     3     5    1
     9     3     8    2
    10     4     7    1
    11     4    16    1
    12     4    17    1
    13     5     6    1
    14     5    18    1
    15     5    19    1
    16     6     9    1
    17     6    20    1
    18     6    21    1
    19     7    11    1
    20     7    22    1
    21     7    23    1
    22     8    10    1
    23     8    24    1
    24     9    10    2
    25     9    25    1
    26    10    26    1
    27    11    27    1
    28    11    28    1
    29    11    29    1
