@<TRIPOS>MOLECULE
IMPHY003496
 50 52 0 0 0
SMALL
GASTEIGER

@<TRIPOS>ATOM
      1 O           3.7891   -0.5090    0.0000 O.3     1  UNL1       -0.3713
      2 O           7.1013   -0.1489    0.0000 O.3     1  UNL1       -0.3946
      3 O           2.8660   -4.0968    0.0000 O.3     1  UNL1       -0.4914
      4 O           2.8833    3.2872    0.0000 O.3     1  UNL1       -0.4915
      5 O           4.5981   -5.0968    0.0000 O.3     1  UNL1       -0.5033
      6 O           4.0589    4.9052    0.0000 O.3     1  UNL1       -0.5033
      7 C           5.4071   -0.5090    0.0000 C.3     1  UNL1        0.0178
      8 C           5.0981    0.4420    0.0000 C.3     1  UNL1       -0.0060
      9 C           4.5981   -1.0968    0.0000 C.3     1  UNL1        0.0890
     10 C           4.0981    0.4420    0.0000 C.3     1  UNL1        0.0520
     11 C           5.6859    1.2510    0.0000 C.3     1  UNL1       -0.0222
     12 C           6.3582   -0.8180    0.0000 C.3     1  UNL1        0.0500
     13 C           4.5981   -2.0968    0.0000 C.ar    1  UNL1       -0.0149
     14 C           5.2791    2.1646    0.0000 C.ar    1  UNL1       -0.0433
     15 C           3.7320   -2.5968    0.0000 C.ar    1  UNL1       -0.0107
     16 C           5.4641   -2.5968    0.0000 C.ar    1  UNL1       -0.0524
     17 C           4.2846    2.2691    0.0000 C.ar    1  UNL1       -0.0131
     18 C           5.8669    2.9736    0.0000 C.ar    1  UNL1       -0.0549
     19 C           3.7320   -3.5968    0.0000 C.ar    1  UNL1        0.1616
     20 C           5.4641   -3.5968    0.0000 C.ar    1  UNL1       -0.0162
     21 C           4.5981   -4.0968    0.0000 C.ar    1  UNL1        0.1585
     22 C           3.8779    3.1827    0.0000 C.ar    1  UNL1        0.1615
     23 C           5.4602    3.8872    0.0000 C.ar    1  UNL1       -0.0163
     24 C           4.4656    3.9917    0.0000 C.ar    1  UNL1        0.1585
     25 C           2.0000   -3.5968    0.0000 C.3     1  UNL1        0.0790
     26 C           2.4766    4.2007    0.0000 C.3     1  UNL1        0.0790
     27 H           5.5041   -1.1214    0.0000 H       1  UNL1        0.0355
     28 H           5.7104    0.3450    0.0000 H       1  UNL1        0.0330
     29 H           5.1505   -1.3783    0.0000 H       1  UNL1        0.0650
     30 H           4.1629    1.0586    0.0000 H       1  UNL1        0.0563
     31 H           3.4916    0.5709    0.0000 H       1  UNL1        0.0563
     32 H           6.1166    0.8051    0.0000 H       1  UNL1        0.0317
     33 H           6.1999    1.5977    0.0000 H       1  UNL1        0.0317
     34 H           6.0671   -1.3655    0.0000 H       1  UNL1        0.0561
     35 H           6.8467   -1.1998    0.0000 H       1  UNL1        0.0561
     36 H           3.1951   -2.2868    0.0000 H       1  UNL1        0.0659
     37 H           6.0010   -2.2868    0.0000 H       1  UNL1        0.0622
     38 H           7.6910   -0.3405    0.0000 H       1  UNL1        0.2094
     39 H           3.9202    1.7675    0.0000 H       1  UNL1        0.0658
     40 H           6.4835    2.9088    0.0000 H       1  UNL1        0.0621
     41 H           6.0010   -3.9068    0.0000 H       1  UNL1        0.0655
     42 H           5.8246    4.3887    0.0000 H       1  UNL1        0.0655
     43 H           5.1350   -5.4068    0.0000 H       1  UNL1        0.2923
     44 H           4.4233    5.4068    0.0000 H       1  UNL1        0.2923
     45 H           2.3100   -3.0599    0.0000 H       1  UNL1        0.0660
     46 H           1.4631   -3.2868    0.0000 H       1  UNL1        0.0660
     47 H           1.6900   -4.1338    0.0000 H       1  UNL1        0.0660
     48 H           3.0430    4.4529    0.0000 H       1  UNL1        0.0660
     49 H           2.2244    4.7671    0.0000 H       1  UNL1        0.0660
     50 H           1.9102    3.9486    0.0000 H       1  UNL1        0.0660
@<TRIPOS>BOND
     1     1     9    1
     2     1    10    1
     3     2    12    1
     4     2    38    1
     5     3    19    1
     6     3    25    1
     7     4    22    1
     8     4    26    1
     9     5    21    1
    10     5    43    1
    11     6    24    1
    12     6    44    1
    13     7     8    1
    14     7     9    1
    15     7    12    1
    16     7    27    1
    17     8    10    1
    18     8    11    1
    19     8    28    1
    20     9    13    1
    21     9    29    1
    22    10    30    1
    23    10    31    1
    24    11    14    1
    25    11    32    1
    26    11    33    1
    27    12    34    1
    28    12    35    1
    29    13    15   ar
    30    13    16   ar
    31    14    17   ar
    32    14    18   ar
    33    15    19   ar
    34    15    36    1
    35    16    20   ar
    36    16    37    1
    37    17    22   ar
    38    17    39    1
    39    18    23   ar
    40    18    40    1
    41    19    21   ar
    42    20    21   ar
    43    20    41    1
    44    22    24   ar
    45    23    24   ar
    46    23    42    1
    47    25    45    1
    48    25    46    1
    49    25    47    1
    50    26    48    1
    51    26    49    1
    52    26    50    1
