@<TRIPOS>MOLECULE
IMPHY008345
 31 32 0 0 0
SMALL
GASTEIGER

@<TRIPOS>ATOM
      1 O           7.2641   -0.3658    0.0000 O.3     1  UNL1       -0.4577
      2 O           2.8660    1.1550    0.0000 O.3     1  UNL1       -0.4913
      3 O           2.8660   -0.8450    0.0000 O.3     1  UNL1       -0.4885
      4 O           4.5981   -1.8450    0.0000 O.3     1  UNL1       -0.5027
      5 O           6.3465   -1.8796    0.0000 O.2     1  UNL1       -0.2448
      6 C           6.3580    1.1897    0.0000 C.3     1  UNL1        0.0104
      7 C           7.2641    0.6758    0.0000 C.3     1  UNL1        0.1046
      8 C           5.4641    0.6550    0.0000 C.ar    1  UNL1       -0.0227
      9 C           5.4641   -0.3450    0.0000 C.ar    1  UNL1        0.1074
     10 C           4.5981    1.1550    0.0000 C.ar    1  UNL1       -0.0120
     11 C           8.1282    1.1792    0.0000 C.3     1  UNL1       -0.0274
     12 C           4.5981   -0.8450    0.0000 C.ar    1  UNL1        0.1767
     13 C           6.3580   -0.8797    0.0000 C.2     1  UNL1        0.3434
     14 C           3.7320    0.6550    0.0000 C.ar    1  UNL1        0.1655
     15 C           3.7320   -0.3450    0.0000 C.ar    1  UNL1        0.2041
     16 C           2.8660    2.1550    0.0000 C.3     1  UNL1        0.0790
     17 C           2.0000   -0.3450    0.0000 C.3     1  UNL1        0.0791
     18 H           6.7517    1.6687    0.0000 H       1  UNL1        0.0349
     19 H           5.9534    1.6594    0.0000 H       1  UNL1        0.0349
     20 H           7.8016    0.3669    0.0000 H       1  UNL1        0.0734
     21 H           4.5981    1.7750    0.0000 H       1  UNL1        0.0658
     22 H           8.4403    0.6434    0.0000 H       1  UNL1        0.0265
     23 H           8.6639    1.4912    0.0000 H       1  UNL1        0.0265
     24 H           7.8161    1.7149    0.0000 H       1  UNL1        0.0265
     25 H           4.0611   -2.1550    0.0000 H       1  UNL1        0.2923
     26 H           3.4860    2.1550    0.0000 H       1  UNL1        0.0660
     27 H           2.8660    2.7750    0.0000 H       1  UNL1        0.0660
     28 H           2.2460    2.1550    0.0000 H       1  UNL1        0.0660
     29 H           2.3100    0.1919    0.0000 H       1  UNL1        0.0660
     30 H           1.4631   -0.0350    0.0000 H       1  UNL1        0.0660
     31 H           1.6900   -0.8819    0.0000 H       1  UNL1        0.0660
@<TRIPOS>BOND
     1     1     7    1
     2     1    13    1
     3     2    14    1
     4     2    16    1
     5     3    15    1
     6     3    17    1
     7     4    12    1
     8     4    25    1
     9     5    13    2
    10     6     7    1
    11     6     8    1
    12     6    18    1
    13     6    19    1
    14     7    11    1
    15     7    20    1
    16     8     9   ar
    17     8    10   ar
    18     9    12   ar
    19     9    13    1
    20    10    14   ar
    21    10    21    1
    22    11    22    1
    23    11    23    1
    24    11    24    1
    25    12    15   ar
    26    14    15   ar
    27    16    26    1
    28    16    27    1
    29    16    28    1
    30    17    29    1
    31    17    30    1
    32    17    31    1
