@<TRIPOS>MOLECULE
IMPHY014785
 39 40 0 0 0
SMALL
GASTEIGER

@<TRIPOS>ATOM
      1 C           2.9665    1.2302    0.0000 C.3     1  UNL1       -0.0310
      2 C           2.7095    0.2552    0.0000 C.3     1  UNL1       -0.0291
      3 C           3.6754   -0.0036    0.0000 C.3     1  UNL1       -0.0163
      4 C           3.9404    0.9693    0.0000 C.3     1  UNL1       -0.0408
      5 C           2.4507   -0.7107    0.0000 C.3     1  UNL1       -0.0455
      6 C           3.2233    2.1967    0.0000 C.3     1  UNL1       -0.0595
      7 C           2.0000    1.4871    0.0000 C.3     1  UNL1       -0.0595
      8 C           4.5414    0.4964    0.0000 C.2     1  UNL1       -0.0729
      9 C           2.9507   -1.5767    0.0000 C.3     1  UNL1       -0.0317
     10 C           5.4075   -0.0036    0.0000 C.3     1  UNL1       -0.0283
     11 C           3.8167   -1.0767    0.0000 C.2     1  UNL1       -0.0765
     12 C           5.5488   -1.0767    0.0000 C.3     1  UNL1       -0.0308
     13 C           4.5414    1.4964    0.0000 C.2     1  UNL1       -0.0992
     14 C           4.6827   -1.5767    0.0000 C.2     1  UNL1       -0.0847
     15 C           3.8167   -0.0767    0.0000 C.3     1  UNL1       -0.0438
     16 H           1.8880    0.4736    0.0000 H       1  UNL1        0.0312
     17 H           3.7864   -0.8463    0.0000 H       1  UNL1        0.0349
     18 H           4.5388    0.8072    0.0000 H       1  UNL1        0.0276
     19 H           4.1017    1.5679    0.0000 H       1  UNL1        0.0276
     20 H           1.9137   -0.4007    0.0000 H       1  UNL1        0.0271
     21 H           2.0123   -1.1491    0.0000 H       1  UNL1        0.0271
     22 H           3.8225    2.0375    0.0000 H       1  UNL1        0.0235
     23 H           3.3825    2.7959    0.0000 H       1  UNL1        0.0235
     24 H           2.6241    2.3559    0.0000 H       1  UNL1        0.0235
     25 H           2.1592    2.0863    0.0000 H       1  UNL1        0.0235
     26 H           1.4008    1.6463    0.0000 H       1  UNL1        0.0235
     27 H           1.8408    0.8879    0.0000 H       1  UNL1        0.0235
     28 H           2.4137   -1.8867    0.0000 H       1  UNL1        0.0310
     29 H           3.2607   -2.1136    0.0000 H       1  UNL1        0.0310
     30 H           6.0251   -0.0576    0.0000 H       1  UNL1        0.0313
     31 H           5.5939    0.5877    0.0000 H       1  UNL1        0.0313
     32 H           5.7860   -1.6495    0.0000 H       1  UNL1        0.0310
     33 H           6.1476   -0.9162    0.0000 H       1  UNL1        0.0310
     34 H           5.0784    1.8064    0.0000 H       1  UNL1        0.0534
     35 H           4.0045    1.8064    0.0000 H       1  UNL1        0.0534
     36 H           4.6827   -2.1967    0.0000 H       1  UNL1        0.0572
     37 H           4.4367   -0.0767    0.0000 H       1  UNL1        0.0274
     38 H           3.8167    0.5433    0.0000 H       1  UNL1        0.0274
     39 H           3.1967   -0.0767    0.0000 H       1  UNL1        0.0274
@<TRIPOS>BOND
     1     1     2    1
     2     1     4    1
     3     1     6    1
     4     1     7    1
     5     2     3    1
     6     2     5    1
     7     2    16    1
     8     3     4    1
     9     3     8    1
    10     3    17    1
    11     4    18    1
    12     4    19    1
    13     5     9    1
    14     5    20    1
    15     5    21    1
    16     6    22    1
    17     6    23    1
    18     6    24    1
    19     7    25    1
    20     7    26    1
    21     7    27    1
    22     8    10    1
    23     8    13    2
    24     9    11    1
    25     9    28    1
    26     9    29    1
    27    10    12    1
    28    10    30    1
    29    10    31    1
    30    11    14    2
    31    11    15    1
    32    12    14    1
    33    12    32    1
    34    12    33    1
    35    13    34    1
    36    13    35    1
    37    14    36    1
    38    15    37    1
    39    15    38    1
    40    15    39    1
