@<TRIPOS>MOLECULE
IMPHY004782
 51 53 0 0 0
SMALL
GASTEIGER

@<TRIPOS>ATOM
      1 O           6.3580   -0.2726    0.0000 O.2     1  UNL1       -0.4508
      2 O           4.5981    2.7621    0.0000 O.3     1  UNL1       -0.4906
      3 O           4.5981   -1.2379    0.0000 O.3     1  UNL1       -0.4913
      4 O           2.8660    1.7621    0.0000 O.3     1  UNL1       -0.4913
      5 O          10.7282    0.2279    0.0000 O.3     1  UNL1       -0.4913
      6 O           8.9846   -2.7654    0.0000 O.3     1  UNL1       -0.4913
      7 O          10.7205   -1.7721    0.0000 O.3     1  UNL1       -0.4885
      8 O           6.3465    2.7967    0.0000 O.2     1  UNL1       -0.2869
      9 C           5.4641    1.2621    0.0000 C.ar    1  UNL1        0.1128
     10 C           5.4641    0.2621    0.0000 C.ar    1  UNL1        0.1844
     11 C           7.2641    0.2412    0.0000 C.ar    1  UNL1        0.1396
     12 C           8.1282   -0.2621    0.0000 C.ar    1  UNL1        0.0245
     13 C           4.5981    1.7621    0.0000 C.ar    1  UNL1        0.1761
     14 C           4.5981   -0.2379    0.0000 C.ar    1  UNL1        0.1665
     15 C           6.3580    1.7967    0.0000 C.ar    1  UNL1        0.1969
     16 C           7.2641    1.2829    0.0000 C.ar    1  UNL1        0.0288
     17 C           3.7320    1.2621    0.0000 C.ar    1  UNL1        0.1659
     18 C           3.7320    0.2621    0.0000 C.ar    1  UNL1        0.0291
     19 C           8.1244   -1.2621    0.0000 C.ar    1  UNL1       -0.0054
     20 C           8.9962    0.2346    0.0000 C.ar    1  UNL1       -0.0054
     21 C           9.8602   -0.2688    0.0000 C.ar    1  UNL1        0.1658
     22 C           8.9884   -1.7654    0.0000 C.ar    1  UNL1        0.1658
     23 C           9.8564   -1.2688    0.0000 C.ar    1  UNL1        0.2035
     24 C           3.7320    3.2621    0.0000 C.3     1  UNL1        0.0790
     25 C           3.7320   -1.7379    0.0000 C.3     1  UNL1        0.0790
     26 C           2.0000    1.2621    0.0000 C.3     1  UNL1        0.0790
     27 C          10.7320    1.2279    0.0000 C.3     1  UNL1        0.0790
     28 C           8.1166   -3.2621    0.0000 C.3     1  UNL1        0.0790
     29 C          11.5884   -1.2754    0.0000 C.3     1  UNL1        0.0791
     30 H           7.7998    1.5950    0.0000 H       1  UNL1        0.0693
     31 H           3.1951   -0.0479    0.0000 H       1  UNL1        0.0693
     32 H           7.5862   -1.5700    0.0000 H       1  UNL1        0.0662
     33 H           8.9985    0.8546    0.0000 H       1  UNL1        0.0662
     34 H           4.0420    3.7990    0.0000 H       1  UNL1        0.0660
     35 H           3.1951    3.5721    0.0000 H       1  UNL1        0.0660
     36 H           3.4220    2.7251    0.0000 H       1  UNL1        0.0660
     37 H           3.4220   -1.2010    0.0000 H       1  UNL1        0.0660
     38 H           3.1951   -2.0479    0.0000 H       1  UNL1        0.0660
     39 H           4.0420   -2.2749    0.0000 H       1  UNL1        0.0660
     40 H           1.6900    1.7990    0.0000 H       1  UNL1        0.0660
     41 H           1.4631    0.9521    0.0000 H       1  UNL1        0.0660
     42 H           2.3100    0.7251    0.0000 H       1  UNL1        0.0660
     43 H          11.3520    1.2255    0.0000 H       1  UNL1        0.0660
     44 H          10.7344    1.8479    0.0000 H       1  UNL1        0.0660
     45 H          10.1120    1.2303    0.0000 H       1  UNL1        0.0660
     46 H           7.8087   -2.7239    0.0000 H       1  UNL1        0.0660
     47 H           7.5785   -3.5700    0.0000 H       1  UNL1        0.0660
     48 H           8.4246   -3.8002    0.0000 H       1  UNL1        0.0660
     49 H          11.8964   -1.8136    0.0000 H       1  UNL1        0.0660
     50 H          12.1266   -0.9675    0.0000 H       1  UNL1        0.0660
     51 H          11.2805   -0.7373    0.0000 H       1  UNL1        0.0660
@<TRIPOS>BOND
     1     1    10   ar
     2     1    11   ar
     3     2    13    1
     4     2    24    1
     5     3    14    1
     6     3    25    1
     7     4    17    1
     8     4    26    1
     9     5    21    1
    10     5    27    1
    11     6    22    1
    12     6    28    1
    13     7    23    1
    14     7    29    1
    15     8    15    2
    16     9    10   ar
    17     9    13   ar
    18     9    15   ar
    19    10    14   ar
    20    11    12    1
    21    11    16   ar
    22    12    19   ar
    23    12    20   ar
    24    13    17   ar
    25    14    18   ar
    26    15    16   ar
    27    16    30    1
    28    17    18   ar
    29    18    31    1
    30    19    22   ar
    31    19    32    1
    32    20    21   ar
    33    20    33    1
    34    21    23   ar
    35    22    23   ar
    36    24    34    1
    37    24    35    1
    38    24    36    1
    39    25    37    1
    40    25    38    1
    41    25    39    1
    42    26    40    1
    43    26    41    1
    44    26    42    1
    45    27    43    1
    46    27    44    1
    47    27    45    1
    48    28    46    1
    49    28    47    1
    50    28    48    1
    51    29    49    1
    52    29    50    1
    53    29    51    1
