@<TRIPOS>MOLECULE
IMPHY005164
 59 63 0 0 0
SMALL
GASTEIGER

@<TRIPOS>ATOM
      1 O           4.4850    3.3185    0.0000 O.2     1  UNL1       -0.4957
      2 O           2.2700   -2.6055    0.0000 O.2     1  UNL1       -0.2744
      3 O           6.2222   -3.0795    0.0000 O.3     1  UNL1       -0.4897
      4 O           7.1110    1.7361    0.0000 O.3     1  UNL1       -0.4646
      5 O           6.2277    0.2462    0.0000 O.2     1  UNL1       -0.2452
      6 O           7.4417   -1.4338    0.0000 O.3     1  UNL1       -0.4914
      7 N           2.7370    0.2493    0.0000 N.3     1  UNL1       -0.2976
      8 N           4.0494   -2.7018    0.0000 N.am    1  UNL1       -0.2815
      9 C           3.6030   -0.2507    0.0000 C.3     1  UNL1        0.0290
     10 C           3.3938   -1.2225    0.0000 C.3     1  UNL1        0.0905
     11 C           4.4691    0.2493    0.0000 C.3     1  UNL1       -0.0285
     12 C           3.6030    1.7493    0.0000 C.3     1  UNL1        0.0157
     13 C           4.4691    1.2493    0.0000 C.3     1  UNL1        0.0026
     14 C           2.4051   -1.3256    0.0000 C.3     1  UNL1       -0.0206
     15 C           2.7370    1.2493    0.0000 C.3     1  UNL1        0.0060
     16 C           2.0000   -0.4178    0.0000 C.3     1  UNL1        0.0005
     17 C           4.3885   -1.1197    0.0000 C.ar    1  UNL1       -0.0059
     18 C           3.5870    2.7908    0.0000 C.3     1  UNL1        0.1011
     19 C           3.1842   -2.2003    0.0000 C.2     1  UNL1        0.2294
     20 C           5.3791    1.7561    0.0000 C.2     1  UNL1        0.0742
     21 C           4.7937   -2.0340    0.0000 C.ar    1  UNL1        0.0835
     22 C           4.9892   -0.2687    0.0000 C.ar    1  UNL1       -0.0521
     23 C           2.7152    3.2807    0.0000 C.3     1  UNL1       -0.0275
     24 C           5.3871    2.7977    0.0000 C.2     1  UNL1        0.0951
     25 C           5.8276   -2.1606    0.0000 C.ar    1  UNL1        0.1830
     26 C           6.2392    1.2461    0.0000 C.2     1  UNL1        0.3381
     27 C           6.0258   -0.3714    0.0000 C.ar    1  UNL1       -0.0159
     28 C           6.4478   -1.3237    0.0000 C.ar    1  UNL1        0.1634
     29 C           7.2152   -3.1972    0.0000 C.3     1  UNL1        0.0790
     30 C           7.1226    2.7360    0.0000 C.3     1  UNL1        0.0820
     31 C           8.0340   -0.6281    0.0000 C.3     1  UNL1        0.0790
     32 H           4.2901   -0.7512    0.0000 H       1  UNL1        0.0476
     33 H           4.6811   -0.3333    0.0000 H       1  UNL1        0.0287
     34 H           5.0796    0.3569    0.0000 H       1  UNL1        0.0287
     35 H           2.8637    2.1686    0.0000 H       1  UNL1        0.0355
     36 H           5.2019    0.8186    0.0000 H       1  UNL1        0.0357
     37 H           1.8155   -1.5174    0.0000 H       1  UNL1        0.0291
     38 H           2.5338   -1.9321    0.0000 H       1  UNL1        0.0291
     39 H           2.5250    1.8319    0.0000 H       1  UNL1        0.0431
     40 H           2.1264    1.1416    0.0000 H       1  UNL1        0.0431
     41 H           1.6346    0.0830    0.0000 H       1  UNL1        0.0427
     42 H           1.4635   -0.7286    0.0000 H       1  UNL1        0.0427
     43 H           3.5810    3.4108    0.0000 H       1  UNL1        0.0733
     44 H           4.1131   -3.3185    0.0000 H       1  UNL1        0.1549
     45 H           4.7315    0.2952    0.0000 H       1  UNL1        0.0622
     46 H           3.0190    3.8212    0.0000 H       1  UNL1        0.0265
     47 H           2.1748    3.5845    0.0000 H       1  UNL1        0.0265
     48 H           2.4115    2.7402    0.0000 H       1  UNL1        0.0265
     49 H           5.9252    3.1056    0.0000 H       1  UNL1        0.1028
     50 H           6.3891    0.1309    0.0000 H       1  UNL1        0.0655
     51 H           7.1422   -3.8129    0.0000 H       1  UNL1        0.0660
     52 H           7.8309   -3.2702    0.0000 H       1  UNL1        0.0660
     53 H           7.2882   -2.5815    0.0000 H       1  UNL1        0.0660
     54 H           7.7425    2.7289    0.0000 H       1  UNL1        0.0661
     55 H           7.1297    3.3560    0.0000 H       1  UNL1        0.0661
     56 H           6.5026    2.7432    0.0000 H       1  UNL1        0.0661
     57 H           8.5336   -0.9953    0.0000 H       1  UNL1        0.0660
     58 H           8.4012   -0.1285    0.0000 H       1  UNL1        0.0660
     59 H           7.5344   -0.2609    0.0000 H       1  UNL1        0.0660
@<TRIPOS>BOND
     1     1    18    1
     2     1    24    1
     3     2    19    2
     4     3    25    1
     5     3    29    1
     6     4    26    1
     7     4    30    1
     8     5    26    2
     9     6    28    1
    10     6    31    1
    11     7     9    1
    12     7    15    1
    13     7    16    1
    14     8    19   am
    15     8    21    1
    16     8    44    1
    17     9    10    1
    18     9    11    1
    19     9    32    1
    20    10    14    1
    21    10    17    1
    22    10    19    1
    23    11    13    1
    24    11    33    1
    25    11    34    1
    26    12    13    1
    27    12    15    1
    28    12    18    1
    29    12    35    1
    30    13    20    1
    31    13    36    1
    32    14    16    1
    33    14    37    1
    34    14    38    1
    35    15    39    1
    36    15    40    1
    37    16    41    1
    38    16    42    1
    39    17    21   ar
    40    17    22   ar
    41    18    23    1
    42    18    43    1
    43    20    24    2
    44    20    26    1
    45    21    25   ar
    46    22    27   ar
    47    22    45    1
    48    23    46    1
    49    23    47    1
    50    23    48    1
    51    24    49    1
    52    25    28   ar
    53    27    28   ar
    54    27    50    1
    55    29    51    1
    56    29    52    1
    57    29    53    1
    58    30    54    1
    59    30    55    1
    60    30    56    1
    61    31    57    1
    62    31    58    1
    63    31    59    1
