@<TRIPOS>MOLECULE
IMPHY008940
 60 62 0 0 0
SMALL
GASTEIGER

@<TRIPOS>ATOM
      1 O          11.5542   -0.1743    0.0000 O.2     1  UNL1       -0.4544
      2 O           9.7942    2.8604    0.0000 O.3     1  UNL1       -0.5055
      3 O           8.0622   -0.1396    0.0000 O.3     1  UNL1       -0.5062
      4 O          11.5426    2.8950    0.0000 O.2     1  UNL1       -0.2869
      5 O          14.1807   -2.6671    0.0000 O.3     1  UNL1       -0.4914
      6 O          15.9166   -1.6738    0.0000 O.3     1  UNL1       -0.5033
      7 C           8.9282    1.3604    0.0000 C.ar    1  UNL1        0.0400
      8 C           8.0622    1.8604    0.0000 C.3     1  UNL1       -0.0023
      9 C          10.6603    1.3604    0.0000 C.ar    1  UNL1        0.1057
     10 C           9.7942    1.8604    0.0000 C.ar    1  UNL1        0.1381
     11 C           6.3301    1.8604    0.0000 C.2     1  UNL1       -0.0759
     12 C           5.4641    1.3604    0.0000 C.3     1  UNL1       -0.0286
     13 C          10.6603    0.3604    0.0000 C.ar    1  UNL1        0.1463
     14 C           7.1962    1.3604    0.0000 C.2     1  UNL1       -0.0805
     15 C           8.9282    0.3604    0.0000 C.ar    1  UNL1        0.1273
     16 C           4.5981    1.8604    0.0000 C.3     1  UNL1       -0.0308
     17 C           9.7942   -0.1396    0.0000 C.ar    1  UNL1        0.0234
     18 C          11.5542    1.8951    0.0000 C.ar    1  UNL1        0.1966
     19 C          12.4603    0.3396    0.0000 C.ar    1  UNL1        0.1393
     20 C           6.3301    2.8604    0.0000 C.3     1  UNL1       -0.0438
     21 C          12.4603    1.3812    0.0000 C.ar    1  UNL1        0.0288
     22 C          13.3244   -0.1637    0.0000 C.ar    1  UNL1        0.0211
     23 C           3.7320    1.3604    0.0000 C.2     1  UNL1       -0.0850
     24 C           2.8660    1.8604    0.0000 C.2     1  UNL1       -0.0796
     25 C          13.3205   -1.1637    0.0000 C.ar    1  UNL1       -0.0057
     26 C          14.1923    0.3329    0.0000 C.ar    1  UNL1       -0.0474
     27 C          14.1846   -1.6671    0.0000 C.ar    1  UNL1        0.1619
     28 C          15.0564   -0.1704    0.0000 C.ar    1  UNL1       -0.0159
     29 C          15.0525   -1.1704    0.0000 C.ar    1  UNL1        0.1585
     30 C           2.0000    1.3604    0.0000 C.3     1  UNL1       -0.0440
     31 C           2.8660    2.8604    0.0000 C.3     1  UNL1       -0.0440
     32 C          15.0448   -3.1704    0.0000 C.3     1  UNL1        0.0790
     33 H           8.4607    2.3354    0.0000 H       1  UNL1        0.0358
     34 H           7.6636    2.3354    0.0000 H       1  UNL1        0.0358
     35 H           5.0656    0.8855    0.0000 H       1  UNL1        0.0313
     36 H           5.8626    0.8855    0.0000 H       1  UNL1        0.0313
     37 H           7.1962    0.7404    0.0000 H       1  UNL1        0.0575
     38 H           4.9966    2.3354    0.0000 H       1  UNL1        0.0310
     39 H           4.1996    2.3354    0.0000 H       1  UNL1        0.0310
     40 H           9.7942   -0.7596    0.0000 H       1  UNL1        0.0691
     41 H           6.9501    2.8604    0.0000 H       1  UNL1        0.0274
     42 H           6.3301    3.4804    0.0000 H       1  UNL1        0.0274
     43 H           5.7101    2.8604    0.0000 H       1  UNL1        0.0274
     44 H          12.9960    1.6933    0.0000 H       1  UNL1        0.0693
     45 H           3.7320    0.7404    0.0000 H       1  UNL1        0.0572
     46 H           9.2573    3.1704    0.0000 H       1  UNL1        0.2922
     47 H          12.7824   -1.4717    0.0000 H       1  UNL1        0.0662
     48 H          14.1947    0.9529    0.0000 H       1  UNL1        0.0626
     49 H           8.0622   -0.7596    0.0000 H       1  UNL1        0.2921
     50 H          15.5945    0.1375    0.0000 H       1  UNL1        0.0655
     51 H           3.4860    2.8604    0.0000 H       1  UNL1        0.0274
     52 H           2.8660    3.4804    0.0000 H       1  UNL1        0.0274
     53 H           2.2460    2.8604    0.0000 H       1  UNL1        0.0274
     54 H           1.6900    1.8973    0.0000 H       1  UNL1        0.0274
     55 H           1.4631    1.0504    0.0000 H       1  UNL1        0.0274
     56 H           2.3100    0.8235    0.0000 H       1  UNL1        0.0274
     57 H          16.4548   -1.3658    0.0000 H       1  UNL1        0.2923
     58 H          14.7328   -3.7061    0.0000 H       1  UNL1        0.0660
     59 H          15.5806   -3.4825    0.0000 H       1  UNL1        0.0660
     60 H          15.3569   -2.6347    0.0000 H       1  UNL1        0.0660
@<TRIPOS>BOND
     1     1    13   ar
     2     1    19   ar
     3     2    10    1
     4     2    46    1
     5     3    15    1
     6     3    49    1
     7     4    18    2
     8     5    27    1
     9     5    32    1
    10     6    29    1
    11     6    57    1
    12     7     8    1
    13     7    10   ar
    14     7    15   ar
    15     8    14    1
    16     8    33    1
    17     8    34    1
    18     9    10   ar
    19     9    13   ar
    20     9    18   ar
    21    11    12    1
    22    11    14    2
    23    11    20    1
    24    12    16    1
    25    12    35    1
    26    12    36    1
    27    13    17   ar
    28    14    37    1
    29    15    17   ar
    30    16    23    1
    31    16    38    1
    32    16    39    1
    33    17    40    1
    34    18    21   ar
    35    19    21   ar
    36    19    22    1
    37    20    41    1
    38    20    42    1
    39    20    43    1
    40    21    44    1
    41    22    25   ar
    42    22    26   ar
    43    23    24    2
    44    23    45    1
    45    24    30    1
    46    24    31    1
    47    25    27   ar
    48    25    47    1
    49    26    28   ar
    50    26    48    1
    51    27    29   ar
    52    28    29   ar
    53    28    50    1
    54    30    54    1
    55    30    55    1
    56    30    56    1
    57    31    51    1
    58    31    52    1
    59    31    53    1
    60    32    58    1
    61    32    59    1
    62    32    60    1
