@<TRIPOS>MOLECULE
IMPHY013597
 84 85 0 0 0
SMALL
GASTEIGER

@<TRIPOS>ATOM
      1 C           9.9282    5.8170    0.0000 C.3     1  UNL1       -0.0346
      2 C           9.0622    4.3170    0.0000 C.3     1  UNL1       -0.0406
      3 C           9.0622    5.3170    0.0000 C.3     1  UNL1       -0.0450
      4 C          10.7942    5.3170    0.0000 C.3     1  UNL1       -0.0479
      5 C           9.9282    3.8170    0.0000 C.3     1  UNL1       -0.0502
      6 C          10.7942    4.3170    0.0000 C.3     1  UNL1       -0.0523
      7 C           8.1962    3.8170    0.0000 C.3     1  UNL1       -0.0502
      8 C          10.4282    6.6830    0.0000 C.3     1  UNL1       -0.0598
      9 C           9.4282    6.6830    0.0000 C.3     1  UNL1       -0.0598
     10 C           8.1962    2.8170    0.0000 C.3     1  UNL1       -0.0526
     11 C           7.3301    2.3170    0.0000 C.3     1  UNL1       -0.0505
     12 C           7.3301    1.3170    0.0000 C.3     1  UNL1       -0.0439
     13 C           6.4641    0.8170    0.0000 C.3     1  UNL1       -0.0505
     14 C           3.0000   -5.1830    0.0000 C.3     1  UNL1       -0.0099
     15 C           6.4641   -0.1830    0.0000 C.3     1  UNL1       -0.0526
     16 C           8.1962    0.8170    0.0000 C.3     1  UNL1       -0.0624
     17 C           3.0000   -6.1830    0.0000 C.3     1  UNL1       -0.0436
     18 C           3.8660   -4.6830    0.0000 C.2     1  UNL1       -0.0430
     19 C           5.5981   -0.6830    0.0000 C.3     1  UNL1       -0.0502
     20 C           3.8660   -6.6830    0.0000 C.3     1  UNL1       -0.0486
     21 C           5.5981   -1.6830    0.0000 C.3     1  UNL1       -0.0404
     22 C           4.7320   -6.1830    0.0000 C.3     1  UNL1       -0.0314
     23 C           4.7320   -5.1830    0.0000 C.2     1  UNL1       -0.0689
     24 C           2.0000   -5.1830    0.0000 C.3     1  UNL1       -0.0558
     25 C           2.5000   -4.3170    0.0000 C.3     1  UNL1       -0.0558
     26 C           4.7320   -2.1830    0.0000 C.3     1  UNL1       -0.0319
     27 C           3.8660   -3.6830    0.0000 C.2     1  UNL1       -0.0620
     28 C           4.7320   -3.1830    0.0000 C.2     1  UNL1       -0.0835
     29 C           6.4641   -2.1830    0.0000 C.3     1  UNL1       -0.0621
     30 C           5.5981   -4.6830    0.0000 C.3     1  UNL1       -0.0432
     31 H           8.5252    4.6270    0.0000 H       1  UNL1        0.0301
     32 H           8.8501    5.8996    0.0000 H       1  UNL1        0.0273
     33 H           8.4516    5.2093    0.0000 H       1  UNL1        0.0273
     34 H          11.4048    5.2093    0.0000 H       1  UNL1        0.0270
     35 H          11.0063    5.8996    0.0000 H       1  UNL1        0.0270
     36 H           9.5297    3.3420    0.0000 H       1  UNL1        0.0268
     37 H          10.3267    3.3420    0.0000 H       1  UNL1        0.0268
     38 H          11.0063    3.7344    0.0000 H       1  UNL1        0.0266
     39 H          11.4048    4.4246    0.0000 H       1  UNL1        0.0266
     40 H           7.9841    4.3996    0.0000 H       1  UNL1        0.0268
     41 H           7.5856    3.7093    0.0000 H       1  UNL1        0.0268
     42 H          10.9651    6.3730    0.0000 H       1  UNL1        0.0235
     43 H          10.7382    7.2200    0.0000 H       1  UNL1        0.0235
     44 H           9.8913    6.9930    0.0000 H       1  UNL1        0.0235
     45 H           9.9651    6.9930    0.0000 H       1  UNL1        0.0235
     46 H           9.1182    7.2200    0.0000 H       1  UNL1        0.0235
     47 H           8.8913    6.3730    0.0000 H       1  UNL1        0.0235
     48 H           8.4082    2.2344    0.0000 H       1  UNL1        0.0265
     49 H           8.8067    2.9247    0.0000 H       1  UNL1        0.0265
     50 H           7.1181    2.8996    0.0000 H       1  UNL1        0.0268
     51 H           6.7196    2.2093    0.0000 H       1  UNL1        0.0268
     52 H           7.3301    0.6970    0.0000 H       1  UNL1        0.0298
     53 H           6.2520    1.3996    0.0000 H       1  UNL1        0.0268
     54 H           5.8535    0.7093    0.0000 H       1  UNL1        0.0268
     55 H           6.6762   -0.7656    0.0000 H       1  UNL1        0.0265
     56 H           7.0747   -0.0754    0.0000 H       1  UNL1        0.0265
     57 H           7.8862    0.2801    0.0000 H       1  UNL1        0.0232
     58 H           8.7331    0.5070    0.0000 H       1  UNL1        0.0232
     59 H           8.5062    1.3539    0.0000 H       1  UNL1        0.0232
     60 H           2.3894   -6.0754    0.0000 H       1  UNL1        0.0274
     61 H           2.7880   -6.7656    0.0000 H       1  UNL1        0.0274
     62 H           5.3860   -0.1004    0.0000 H       1  UNL1        0.0268
     63 H           4.9875   -0.7907    0.0000 H       1  UNL1        0.0268
     64 H           3.4675   -7.1580    0.0000 H       1  UNL1        0.0269
     65 H           4.2646   -7.1580    0.0000 H       1  UNL1        0.0269
     66 H           5.5981   -2.3030    0.0000 H       1  UNL1        0.0301
     67 H           4.9441   -6.7656    0.0000 H       1  UNL1        0.0310
     68 H           5.3426   -6.0754    0.0000 H       1  UNL1        0.0310
     69 H           2.0000   -4.5630    0.0000 H       1  UNL1        0.0238
     70 H           1.3800   -5.1830    0.0000 H       1  UNL1        0.0238
     71 H           2.0000   -5.8030    0.0000 H       1  UNL1        0.0238
     72 H           3.0369   -4.0070    0.0000 H       1  UNL1        0.0238
     73 H           2.1900   -3.7800    0.0000 H       1  UNL1        0.0238
     74 H           1.9631   -4.6270    0.0000 H       1  UNL1        0.0238
     75 H           4.5200   -1.6004    0.0000 H       1  UNL1        0.0310
     76 H           4.1215   -2.2907    0.0000 H       1  UNL1        0.0310
     77 H           3.3291   -3.3730    0.0000 H       1  UNL1        0.0617
     78 H           5.2690   -3.4930    0.0000 H       1  UNL1        0.0572
     79 H           6.1541   -2.7200    0.0000 H       1  UNL1        0.0233
     80 H           7.0010   -2.4930    0.0000 H       1  UNL1        0.0233
     81 H           6.7741   -1.6461    0.0000 H       1  UNL1        0.0233
     82 H           5.9081   -5.2200    0.0000 H       1  UNL1        0.0275
     83 H           6.1350   -4.3730    0.0000 H       1  UNL1        0.0275
     84 H           5.2881   -4.1461    0.0000 H       1  UNL1        0.0275
@<TRIPOS>BOND
     1     1     3    1
     2     1     4    1
     3     1     8    1
     4     1     9    1
     5     2     3    1
     6     2     5    1
     7     2     7    1
     8     2    31    1
     9     3    32    1
    10     3    33    1
    11     4     6    1
    12     4    34    1
    13     4    35    1
    14     5     6    1
    15     5    36    1
    16     5    37    1
    17     6    38    1
    18     6    39    1
    19     7    10    1
    20     7    40    1
    21     7    41    1
    22     8    42    1
    23     8    43    1
    24     8    44    1
    25     9    45    1
    26     9    46    1
    27     9    47    1
    28    10    11    1
    29    10    48    1
    30    10    49    1
    31    11    12    1
    32    11    50    1
    33    11    51    1
    34    12    13    1
    35    12    16    1
    36    12    52    1
    37    13    15    1
    38    13    53    1
    39    13    54    1
    40    14    17    1
    41    14    18    1
    42    14    24    1
    43    14    25    1
    44    15    19    1
    45    15    55    1
    46    15    56    1
    47    16    57    1
    48    16    58    1
    49    16    59    1
    50    17    20    1
    51    17    60    1
    52    17    61    1
    53    18    23    2
    54    18    27    1
    55    19    21    1
    56    19    62    1
    57    19    63    1
    58    20    22    1
    59    20    64    1
    60    20    65    1
    61    21    26    1
    62    21    29    1
    63    21    66    1
    64    22    23    1
    65    22    67    1
    66    22    68    1
    67    23    30    1
    68    24    69    1
    69    24    70    1
    70    24    71    1
    71    25    72    1
    72    25    73    1
    73    25    74    1
    74    26    28    1
    75    26    75    1
    76    26    76    1
    77    27    28    2
    78    27    77    1
    79    28    78    1
    80    29    79    1
    81    29    80    1
    82    29    81    1
    83    30    82    1
    84    30    83    1
    85    30    84    1
