@<TRIPOS>MOLECULE
IMPHY014587
 54 55 0 0 0
SMALL
GASTEIGER

@<TRIPOS>ATOM
      1 O           2.0000   -1.4820    0.0000 O.2     1  UNL1       -0.3007
      2 O           4.5981    2.4820    0.0000 O.3     1  UNL1       -0.4948
      3 O           7.5981   -0.9821    0.0000 O.2     1  UNL1       -0.2957
      4 C           4.5981   -0.9821    0.0000 C.3     1  UNL1        0.0034
      5 C           3.7320   -2.4820    0.0000 C.3     1  UNL1       -0.0248
      6 C           3.7320   -1.4820    0.0000 C.3     1  UNL1        0.0290
      7 C           5.4641   -1.4820    0.0000 C.3     1  UNL1       -0.0429
      8 C           4.5981   -2.9820    0.0000 C.3     1  UNL1       -0.0472
      9 C           5.4641   -2.4820    0.0000 C.3     1  UNL1       -0.0517
     10 C           5.0981   -0.1160    0.0000 C.ar    1  UNL1       -0.0271
     11 C           4.0981   -0.1160    0.0000 C.3     1  UNL1       -0.0549
     12 C           3.2320   -3.3481    0.0000 C.3     1  UNL1       -0.0592
     13 C           2.7320   -2.4820    0.0000 C.3     1  UNL1       -0.0592
     14 C           2.8660   -0.9821    0.0000 C.2     1  UNL1        0.1247
     15 C           6.0981   -0.1160    0.0000 C.ar    1  UNL1        0.0184
     16 C           4.5981    0.7500    0.0000 C.ar    1  UNL1       -0.0153
     17 C           5.0981    1.6160    0.0000 C.ar    1  UNL1        0.1238
     18 C           6.5981    0.7500    0.0000 C.ar    1  UNL1       -0.0444
     19 C           6.0981    1.6160    0.0000 C.ar    1  UNL1       -0.0025
     20 C           6.5981   -0.9821    0.0000 C.2     1  UNL1        0.1505
     21 C           6.5981    2.4820    0.0000 C.3     1  UNL1       -0.0180
     22 C           7.5981    2.4820    0.0000 C.3     1  UNL1       -0.0585
     23 C           6.0981    3.3481    0.0000 C.3     1  UNL1       -0.0585
     24 C           3.5981    2.4820    0.0000 C.3     1  UNL1        0.0788
     25 H           3.7320   -0.8621    0.0000 H       1  UNL1        0.0388
     26 H           6.0747   -1.5897    0.0000 H       1  UNL1        0.0274
     27 H           5.6762   -0.8994    0.0000 H       1  UNL1        0.0274
     28 H           4.1996   -3.4570    0.0000 H       1  UNL1        0.0271
     29 H           4.9966   -3.4570    0.0000 H       1  UNL1        0.0271
     30 H           5.6762   -3.0647    0.0000 H       1  UNL1        0.0266
     31 H           6.0747   -2.3744    0.0000 H       1  UNL1        0.0266
     32 H           4.6350    0.1940    0.0000 H       1  UNL1        0.0238
     33 H           3.7881    0.4209    0.0000 H       1  UNL1        0.0238
     34 H           3.5611   -0.4260    0.0000 H       1  UNL1        0.0238
     35 H           2.6951   -3.0381    0.0000 H       1  UNL1        0.0235
     36 H           2.9220   -3.8850    0.0000 H       1  UNL1        0.0235
     37 H           3.7690   -3.6581    0.0000 H       1  UNL1        0.0235
     38 H           2.7320   -1.8620    0.0000 H       1  UNL1        0.0235
     39 H           2.1120   -2.4820    0.0000 H       1  UNL1        0.0235
     40 H           2.7320   -3.1021    0.0000 H       1  UNL1        0.0235
     41 H           2.8660   -0.3621    0.0000 H       1  UNL1        0.1030
     42 H           3.9781    0.7500    0.0000 H       1  UNL1        0.0657
     43 H           7.2181    0.7500    0.0000 H       1  UNL1        0.0628
     44 H           6.2881   -1.5190    0.0000 H       1  UNL1        0.1081
     45 H           6.9081    3.0190    0.0000 H       1  UNL1        0.0345
     46 H           7.5981    1.8620    0.0000 H       1  UNL1        0.0235
     47 H           8.2181    2.4820    0.0000 H       1  UNL1        0.0235
     48 H           7.5981    3.1021    0.0000 H       1  UNL1        0.0235
     49 H           6.6350    3.6581    0.0000 H       1  UNL1        0.0235
     50 H           5.7881    3.8850    0.0000 H       1  UNL1        0.0235
     51 H           5.5611    3.0381    0.0000 H       1  UNL1        0.0235
     52 H           3.5981    3.1021    0.0000 H       1  UNL1        0.0660
     53 H           2.9781    2.4820    0.0000 H       1  UNL1        0.0660
     54 H           3.5981    1.8620    0.0000 H       1  UNL1        0.0660
@<TRIPOS>BOND
     1     1    14    2
     2     2    17    1
     3     2    24    1
     4     3    20    2
     5     4     6    1
     6     4     7    1
     7     4    10    1
     8     4    11    1
     9     5     6    1
    10     5     8    1
    11     5    12    1
    12     5    13    1
    13     6    14    1
    14     6    25    1
    15     7     9    1
    16     7    26    1
    17     7    27    1
    18     8     9    1
    19     8    28    1
    20     8    29    1
    21     9    30    1
    22     9    31    1
    23    10    15   ar
    24    10    16   ar
    25    11    32    1
    26    11    33    1
    27    11    34    1
    28    12    35    1
    29    12    36    1
    30    12    37    1
    31    13    38    1
    32    13    39    1
    33    13    40    1
    34    14    41    1
    35    15    18   ar
    36    15    20    1
    37    16    17   ar
    38    16    42    1
    39    17    19   ar
    40    18    19   ar
    41    18    43    1
    42    19    21    1
    43    20    44    1
    44    21    22    1
    45    21    23    1
    46    21    45    1
    47    22    46    1
    48    22    47    1
    49    22    48    1
    50    23    49    1
    51    23    50    1
    52    23    51    1
    53    24    52    1
    54    24    53    1
    55    24    54    1
