@<TRIPOS>MOLECULE
IMPHY003844
 16 15 0 0 0
SMALL
GASTEIGER

@<TRIPOS>ATOM
      1 O           2.5369   -0.2500    0.0000 O.3     1  UNL1       -0.3910
      2 C           6.0010   -0.2500    0.0000 C.3     1  UNL1       -0.0375
      3 C           5.1350    0.2500    0.0000 C.2     1  UNL1       -0.0861
      4 C           6.8671    0.2500    0.0000 C.3     1  UNL1       -0.0618
      5 C           4.2690   -0.2500    0.0000 C.2     1  UNL1       -0.0629
      6 C           3.4030    0.2500    0.0000 C.3     1  UNL1        0.0624
      7 H           5.6025   -0.7249    0.0000 H       1  UNL1        0.0305
      8 H           6.3996   -0.7249    0.0000 H       1  UNL1        0.0305
      9 H           5.1350    0.8700    0.0000 H       1  UNL1        0.0570
     10 H           7.1771   -0.2869    0.0000 H       1  UNL1        0.0233
     11 H           7.4040    0.5600    0.0000 H       1  UNL1        0.0233
     12 H           6.5571    0.7869    0.0000 H       1  UNL1        0.0233
     13 H           4.2690   -0.8700    0.0000 H       1  UNL1        0.0591
     14 H           3.8015    0.7249    0.0000 H       1  UNL1        0.0601
     15 H           3.0044    0.7249    0.0000 H       1  UNL1        0.0601
     16 H           2.0000    0.0600    0.0000 H       1  UNL1        0.2098
@<TRIPOS>BOND
     1     1     6    1
     2     1    16    1
     3     2     3    1
     4     2     4    1
     5     2     7    1
     6     2     8    1
     7     3     5    2
     8     3     9    1
     9     4    10    1
    10     4    11    1
    11     4    12    1
    12     5     6    1
    13     5    13    1
    14     6    14    1
    15     6    15    1
