@<TRIPOS>MOLECULE
IMPHY012467
 16 15 0 0 0
SMALL
GASTEIGER

@<TRIPOS>ATOM
      1 O           6.0010   -0.0950    0.0000 O.3     1  UNL1       -0.3889
      2 O           4.2690   -1.0950    0.0000 O.3     1  UNL1       -0.3784
      3 O           2.5369   -0.0950    0.0000 O.3     1  UNL1       -0.4788
      4 O           3.4030    1.4050    0.0000 O.2     1  UNL1       -0.2480
      5 C           5.1350    0.4050    0.0000 C.3     1  UNL1        0.0887
      6 C           4.2690   -0.0950    0.0000 C.3     1  UNL1        0.1770
      7 C           5.1350    1.4050    0.0000 C.3     1  UNL1       -0.0360
      8 C           3.4030    0.4050    0.0000 C.2     1  UNL1        0.3362
      9 H           5.1350   -0.2150    0.0000 H       1  UNL1        0.0622
     10 H           3.7320   -0.4050    0.0000 H       1  UNL1        0.0737
     11 H           5.7550    1.4050    0.0000 H       1  UNL1        0.0255
     12 H           5.1350    2.0250    0.0000 H       1  UNL1        0.0255
     13 H           4.5150    1.4050    0.0000 H       1  UNL1        0.0255
     14 H           6.5380    0.2150    0.0000 H       1  UNL1        0.2099
     15 H           3.7320   -1.4050    0.0000 H       1  UNL1        0.2106
     16 H           2.0000    0.2150    0.0000 H       1  UNL1        0.2951
@<TRIPOS>BOND
     1     1     5    1
     2     1    14    1
     3     2     6    1
     4     2    15    1
     5     3     8    1
     6     3    16    1
     7     4     8    2
     8     5     6    1
     9     5     7    1
    10     5     9    1
    11     6     8    1
    12     6    10    1
    13     7    11    1
    14     7    12    1
    15     7    13    1
