@<TRIPOS>MOLECULE
IMPHY006520
 82 86 0 0 0
SMALL
GASTEIGER

@<TRIPOS>ATOM
      1 O           3.9891   -2.7990    0.0000 O.3     1  UNL1       -0.3945
      2 O          11.1246    3.3871    0.0000 O.2     1  UNL1       -0.2971
      3 C           6.6507   -0.2573    0.0000 C.3     1  UNL1       -0.0231
      4 C           5.7847    0.2427    0.0000 C.3     1  UNL1       -0.0230
      5 C           7.5167    0.2427    0.0000 C.3     1  UNL1       -0.0294
      6 C           7.5167    1.2427    0.0000 C.3     1  UNL1       -0.0254
      7 C           4.8746   -0.2641    0.0000 C.3     1  UNL1       -0.0269
      8 C           4.8666   -1.3057    0.0000 C.3     1  UNL1       -0.0027
      9 C           8.4106    1.7774    0.0000 C.3     1  UNL1       -0.0289
     10 C           5.7847    1.2427    0.0000 C.3     1  UNL1       -0.0463
     11 C           6.6507    1.7427    0.0000 C.3     1  UNL1       -0.0466
     12 C           6.6667   -1.2988    0.0000 C.3     1  UNL1       -0.0463
     13 C           9.3167    1.2635    0.0000 C.3     1  UNL1       -0.0195
     14 C           8.4106   -0.2920    0.0000 C.3     1  UNL1       -0.0487
     15 C           5.7687   -1.8266    0.0000 C.3     1  UNL1       -0.0445
     16 C           3.9478    0.2999    0.0000 C.3     1  UNL1       -0.0439
     17 C           9.3167    0.2219    0.0000 C.3     1  UNL1       -0.0464
     18 C           7.5167   -0.7573    0.0000 C.3     1  UNL1       -0.0588
     19 C           4.9186    0.7427    0.0000 C.3     1  UNL1       -0.0588
     20 C           3.9312   -1.8555    0.0000 C.3     1  UNL1       -0.0445
     21 C           7.5167    2.2427    0.0000 C.3     1  UNL1       -0.0590
     22 C           2.9999   -0.2280    0.0000 C.3     1  UNL1       -0.0346
     23 C           8.3856    2.8621    0.0000 C.3     1  UNL1       -0.0425
     24 C          10.2605    1.7988    0.0000 C.3     1  UNL1        0.0203
     25 C           2.9916   -1.3130    0.0000 C.3     1  UNL1       -0.0473
     26 C           4.8589   -2.3057    0.0000 C.3     1  UNL1        0.0501
     27 C          10.1866    0.7702    0.0000 C.3     1  UNL1       -0.0587
     28 C           9.3167    3.4190    0.0000 C.3     1  UNL1        0.0064
     29 C          10.2605    2.8838    0.0000 C.2     1  UNL1        0.1367
     30 C           2.0000   -0.2164    0.0000 C.3     1  UNL1       -0.0598
     31 C           2.5100    0.6437    0.0000 C.3     1  UNL1       -0.0598
     32 C          11.1246    1.2954    0.0000 C.3     1  UNL1       -0.0552
     33 H           8.2561    0.6620    0.0000 H       1  UNL1        0.0312
     34 H           5.6058   -0.6976    0.0000 H       1  UNL1        0.0312
     35 H           9.1401    2.2137    0.0000 H       1  UNL1        0.0312
     36 H           5.5726    1.8253    0.0000 H       1  UNL1        0.0271
     37 H           5.1741    1.1350    0.0000 H       1  UNL1        0.0271
     38 H           7.0492    2.2177    0.0000 H       1  UNL1        0.0271
     39 H           6.2522    2.2177    0.0000 H       1  UNL1        0.0271
     40 H           6.8848   -1.8792    0.0000 H       1  UNL1        0.0271
     41 H           7.2759   -1.1833    0.0000 H       1  UNL1        0.0271
     42 H           8.0060   -0.7617    0.0000 H       1  UNL1        0.0268
     43 H           8.8043   -0.7710    0.0000 H       1  UNL1        0.0268
     44 H           5.3714   -2.3025    0.0000 H       1  UNL1        0.0272
     45 H           6.1697   -2.2994    0.0000 H       1  UNL1        0.0272
     46 H           4.3560    0.7666    0.0000 H       1  UNL1        0.0273
     47 H           3.5579    0.7820    0.0000 H       1  UNL1        0.0273
     48 H           9.5258   -0.3618    0.0000 H       1  UNL1        0.0271
     49 H           9.9276    0.3280    0.0000 H       1  UNL1        0.0271
     50 H           7.2067   -1.2942    0.0000 H       1  UNL1        0.0235
     51 H           8.0536   -1.0673    0.0000 H       1  UNL1        0.0235
     52 H           7.8267   -0.2204    0.0000 H       1  UNL1        0.0235
     53 H           5.2286    1.2796    0.0000 H       1  UNL1        0.0235
     54 H           4.3817    1.0527    0.0000 H       1  UNL1        0.0235
     55 H           4.6086    0.2058    0.0000 H       1  UNL1        0.0235
     56 H           3.5339   -2.3314    0.0000 H       1  UNL1        0.0272
     57 H           4.3322   -2.3284    0.0000 H       1  UNL1        0.0272
     58 H           8.1367    2.2427    0.0000 H       1  UNL1        0.0235
     59 H           7.5167    2.8627    0.0000 H       1  UNL1        0.0235
     60 H           6.8967    2.2427    0.0000 H       1  UNL1        0.0235
     61 H           8.1631    3.4408    0.0000 H       1  UNL1        0.0272
     62 H           7.7773    2.7419    0.0000 H       1  UNL1        0.0272
     63 H          10.7980    2.1077    0.0000 H       1  UNL1        0.0380
     64 H           2.3816   -1.2022    0.0000 H       1  UNL1        0.0271
     65 H           2.7780   -1.8950    0.0000 H       1  UNL1        0.0271
     66 H           5.0665   -2.8899    0.0000 H       1  UNL1        0.0563
     67 H           5.4703   -2.2028    0.0000 H       1  UNL1        0.0563
     68 H           9.8807    0.2309    0.0000 H       1  UNL1        0.0235
     69 H          10.7259    0.4644    0.0000 H       1  UNL1        0.0235
     70 H          10.4924    1.3095    0.0000 H       1  UNL1        0.0235
     71 H           9.7103    3.8980    0.0000 H       1  UNL1        0.0342
     72 H           8.9121    3.8888    0.0000 H       1  UNL1        0.0342
     73 H           2.0072    0.4035    0.0000 H       1  UNL1        0.0235
     74 H           1.3800   -0.2093    0.0000 H       1  UNL1        0.0235
     75 H           1.9928   -0.8364    0.0000 H       1  UNL1        0.0235
     76 H           3.0505    0.9475    0.0000 H       1  UNL1        0.0235
     77 H           2.2062    1.1842    0.0000 H       1  UNL1        0.0235
     78 H           1.9695    0.3400    0.0000 H       1  UNL1        0.0235
     79 H          10.8125    0.7597    0.0000 H       1  UNL1        0.0237
     80 H          11.6603    0.9834    0.0000 H       1  UNL1        0.0237
     81 H          11.4367    1.8312    0.0000 H       1  UNL1        0.0237
     82 H           3.9843   -3.4190    0.0000 H       1  UNL1        0.2094
@<TRIPOS>BOND
     1     1    26    1
     2     1    82    1
     3     2    29    2
     4     3     4    1
     5     3     5    1
     6     3    12    1
     7     3    18    1
     8     4     7    1
     9     4    10    1
    10     4    19    1
    11     5     6    1
    12     5    14    1
    13     5    33    1
    14     6     9    1
    15     6    11    1
    16     6    21    1
    17     7     8    1
    18     7    16    1
    19     7    34    1
    20     8    15    1
    21     8    20    1
    22     8    26    1
    23     9    13    1
    24     9    23    1
    25     9    35    1
    26    10    11    1
    27    10    36    1
    28    10    37    1
    29    11    38    1
    30    11    39    1
    31    12    15    1
    32    12    40    1
    33    12    41    1
    34    13    17    1
    35    13    24    1
    36    13    27    1
    37    14    17    1
    38    14    42    1
    39    14    43    1
    40    15    44    1
    41    15    45    1
    42    16    22    1
    43    16    46    1
    44    16    47    1
    45    17    48    1
    46    17    49    1
    47    18    50    1
    48    18    51    1
    49    18    52    1
    50    19    53    1
    51    19    54    1
    52    19    55    1
    53    20    25    1
    54    20    56    1
    55    20    57    1
    56    21    58    1
    57    21    59    1
    58    21    60    1
    59    22    25    1
    60    22    30    1
    61    22    31    1
    62    23    28    1
    63    23    61    1
    64    23    62    1
    65    24    29    1
    66    24    32    1
    67    24    63    1
    68    25    64    1
    69    25    65    1
    70    26    66    1
    71    26    67    1
    72    27    68    1
    73    27    69    1
    74    27    70    1
    75    28    29    1
    76    28    71    1
    77    28    72    1
    78    30    73    1
    79    30    74    1
    80    30    75    1
    81    31    76    1
    82    31    77    1
    83    31    78    1
    84    32    79    1
    85    32    80    1
    86    32    81    1
