@<TRIPOS>MOLECULE
IMPHY010709
 97 106 0 0 0
SMALL
GASTEIGER

@<TRIPOS>ATOM
      1 O           2.3293   -7.8837    0.0000 O.3     1  UNL1       -0.3326
      2 C           3.4299   -7.1926    0.0000 C.3     1  UNL1        0.1993
      3 C           3.3787   -5.8616    0.0000 C.3     1  UNL1        0.2316
      4 O           2.2269   -5.2473    0.0000 O.3     1  UNL1       -0.2154
      5 C           4.5050   -5.1449    0.0000 C.3     1  UNL1        0.2193
      6 O           4.4538   -3.8395    0.0000 O.3     1  UNL1       -0.2174
      7 C           5.6824   -5.7848    0.0000 C.3     1  UNL1        0.2144
      8 O           6.8086   -5.0681    0.0000 O.3     1  UNL1       -0.2176
      9 C           5.7336   -7.0902    0.0000 C.3     1  UNL1        0.1830
     10 O           4.6074   -7.8069    0.0000 O.3     1  UNL1       -0.3322
     11 C           6.9110   -7.7301    0.0000 C.3     1  UNL1        0.2142
     12 O           6.9366   -9.0355    0.0000 O.3     1  UNL1       -0.2176
     13 C          20.7331   -1.3310    0.0000 C.2     1  UNL1        0.3413
     14 O          20.7075    0.0000    0.0000 O.2     1  UNL1       -0.2449
     15 C          19.5813   -1.9965    0.0000 C.2     1  UNL1        0.0819
     16 C          18.4294   -1.3566    0.0000 C.2     1  UNL1        0.0066
     17 C          17.2776   -2.0221    0.0000 C.ar    1  UNL1        0.0002
     18 C          16.1257   -1.3566    0.0000 C.ar    1  UNL1        0.0000
     19 C          14.9739   -2.0221    0.0000 C.ar    1  UNL1        0.0000
     20 C          14.9739   -3.3531    0.0000 C.ar    1  UNL1        0.0000
     21 C          16.1513   -4.0186    0.0000 C.ar    1  UNL1        0.0000
     22 C          17.2776   -3.3531    0.0000 C.ar    1  UNL1        0.0000
     23 C          17.2264   -5.9896    0.0000 C.3     1  UNL1        0.0303
     24 C          17.2264   -7.3206    0.0000 C.3     1  UNL1        0.1213
     25 C          18.3782   -7.9861    0.0000 C.3     1  UNL1        0.0513
     26 C          18.3782   -5.3241    0.0000 C.3     1  UNL1        0.0060
     27 C          19.5301   -5.9896    0.0000 C.3     1  UNL1        0.0140
     28 C          19.5301   -7.3206    0.0000 C.2     1  UNL1       -0.0468
     29 C          20.6819   -7.9861    0.0000 C.2     1  UNL1       -0.0319
     30 C          21.8337   -7.3206    0.0000 C.3     1  UNL1        0.0579
     31 C          20.6819   -5.3241    0.0000 C.3     1  UNL1        0.0162
     32 C          21.8337   -5.9896    0.0000 C.3     1  UNL1        0.1531
     33 C          21.8593   -3.3531    0.0000 C.3     1  UNL1        0.1738
     34 C          20.6819   -3.9930    0.0000 C.3     1  UNL1        0.0426
     35 C          23.0112   -4.0186    0.0000 C.3     1  UNL1        0.0970
     36 C          22.9856   -5.3497    0.0000 C.3     1  UNL1        0.1579
     37 C          24.2398   -5.7848    0.0000 C.3     1  UNL1        0.0361
     38 C          25.0333   -4.7097    0.0000 C.3     1  UNL1        0.0404
     39 C          24.2654   -3.6347    0.0000 C.3     1  UNL1        0.1825
     40 O          16.0746   -7.9861    0.0000 O.3     1  UNL1       -0.3397
     41 C          16.0746   -9.3171    0.0000 C.3     1  UNL1        0.1708
     42 O          14.9227   -9.9826    0.0000 O.3     1  UNL1       -0.3399
     43 C          14.9227  -11.2880    0.0000 C.3     1  UNL1        0.1221
     44 C          16.0746  -11.9791    0.0000 C.3     1  UNL1        0.0842
     45 C          17.2264  -11.3136    0.0000 C.3     1  UNL1        0.1246
     46 C          17.2264   -9.9570    0.0000 C.3     1  UNL1        0.0817
     47 C          13.7709  -11.9791    0.0000 C.3     1  UNL1        0.0323
     48 C          16.0746  -13.3101    0.0000 C.3     1  UNL1        0.1471
     49 O          14.9227  -13.9756    0.0000 O.3     1  UNL1       -0.3510
     50 C          14.9227  -15.3067    0.0000 C.3     1  UNL1        0.1716
     51 C          13.7709  -15.9722    0.0000 C.3     1  UNL1        0.1470
     52 O          12.6190  -15.2811    0.0000 O.3     1  UNL1       -0.3559
     53 C          11.4672  -15.9466    0.0000 C.3     1  UNL1        0.1200
     54 C          11.4416  -17.2776    0.0000 C.3     1  UNL1        0.0840
     55 C          12.5934  -17.9431    0.0000 C.3     1  UNL1        0.1226
     56 C          13.7709  -17.2776    0.0000 C.3     1  UNL1        0.0618
     57 O          18.3782  -11.9791    0.0000 O.3     1  UNL1       -0.3532
     58 C          18.3782  -13.3101    0.0000 C.3     1  UNL1        0.1740
     59 C          10.3154  -15.2811    0.0000 C.3     1  UNL1        0.0322
     60 C          10.2898  -17.9431    0.0000 C.3     1  UNL1        0.1471
     61 O           9.1379  -17.2520    0.0000 O.3     1  UNL1       -0.3510
     62 C           7.9861  -17.9175    0.0000 C.3     1  UNL1        0.1716
     63 C           6.8342  -17.2520    0.0000 C.3     1  UNL1        0.1470
     64 O           6.8598  -15.9210    0.0000 O.3     1  UNL1       -0.3559
     65 C           5.7080  -15.2555    0.0000 C.3     1  UNL1        0.1200
     66 C           4.5562  -15.8954    0.0000 C.3     1  UNL1        0.0840
     67 C           4.5306  -17.2264    0.0000 C.3     1  UNL1        0.1226
     68 C           5.6824  -17.9175    0.0000 C.3     1  UNL1        0.0618
     69 C           5.7080  -13.9245    0.0000 C.3     1  UNL1        0.0322
     70 C           3.4043  -15.2299    0.0000 C.3     1  UNL1        0.1471
     71 O           3.4043  -13.8989    0.0000 O.3     1  UNL1       -0.3510
     72 C           2.2525  -13.2078    0.0000 C.3     1  UNL1        0.1716
     73 C           2.2781  -11.8767    0.0000 C.3     1  UNL1        0.1472
     74 O           3.4299  -11.2368    0.0000 O.3     1  UNL1       -0.3535
     75 C           3.4555   -9.9058    0.0000 C.3     1  UNL1        0.1448
     76 C           2.3037   -9.2147    0.0000 C.3     1  UNL1        0.1713
     77 C           1.1518   -9.8802    0.0000 C.3     1  UNL1        0.1473
     78 C           1.1262  -11.2112    0.0000 C.3     1  UNL1        0.0643
     79 C           4.6074   -9.2403    0.0000 C.3     1  UNL1        0.0347
     80 O           0.0000   -9.1891    0.0000 O.3     1  UNL1       -0.3509
     81 C           0.0256   -7.8581    0.0000 C.3     1  UNL1        0.1741
     82 C          19.5301   -4.6585    0.0000 C.3     1  UNL1        0.0038
     83 H          20.6819   -6.6551    0.0000 H       1  UNL1        0.0347
     84 O          21.8082   -4.6585    0.0000 O.3     1  UNL1       -0.2231
     85 O          22.9856   -6.6807    0.0000 O.3     1  UNL1       -0.2229
     86 O          25.5964   -3.6347    0.0000 O.3     1  UNL1       -0.2180
     87 C          24.2654   -2.3037    0.0000 C.2     1  UNL1        0.1785
     88 C          23.0880   -1.6382    0.0000 C.3     1  UNL1        0.0749
     89 O          25.4172   -1.6382    0.0000 O.2     1  UNL1       -0.2935
     90 O          21.8849   -2.0221    0.0000 O.3     1  UNL1       -0.4490
     91 C          22.9856   -2.6876    0.0000 C.3     1  UNL1        0.0091
     92 O          12.5934  -19.2741    0.0000 O.3     1  UNL1       -0.3533
     93 C          11.4416  -19.9396    0.0000 C.3     1  UNL1        0.1740
     94 O           3.3787  -17.8919    0.0000 O.3     1  UNL1       -0.3533
     95 C           2.2269  -17.2008    0.0000 C.3     1  UNL1        0.1740
     96 H          17.3544   -8.9587    0.0000 H       1  UNL1        0.0917
     97 H           3.7627   -8.4468    0.0000 H       1  UNL1        0.0943
@<TRIPOS>BOND
     1     1     2    1
     2     2    10    1
     3     2     3    1
     4     2    97    1
     5     3     4    1
     6     3     5    1
     7     5     6    1
     8     5     7    1
     9     7     8    1
    10     7     9    1
    11     9    11    1
    12     9    10    1
    13    11    12    1
    14    13    14    2
    15    13    15    1
    16    13    90    1
    17    15    16    2
    18    16    17    1
    19    17    18   ar
    20    17    22   ar
    21    18    19   ar
    22    19    20   ar
    23    20    21   ar
    24    21    22   ar
    25    23    26    1
    26    23    24    1
    27    24    25    1
    28    24    40    1
    29    25    28    1
    30    26    27    1
    31    27    28    1
    32    27    31    1
    33    27    82    1
    34    28    29    2
    35    29    30    1
    36    30    32    1
    37    31    32    1
    38    31    34    1
    39    31    83    1
    40    32    36    1
    41    32    84    1
    42    33    35    1
    43    33    34    1
    44    33    90    1
    45    35    36    1
    46    35    39    1
    47    35    91    1
    48    36    37    1
    49    36    85    1
    50    37    38    1
    51    38    39    1
    52    39    86    1
    53    39    87    1
    54    40    41    1
    55    41    42    1
    56    41    46    1
    57    41    96    1
    58    42    43    1
    59    43    47    1
    60    43    44    1
    61    44    48    1
    62    44    45    1
    63    45    57    1
    64    45    46    1
    65    48    49    1
    66    49    50    1
    67    51    50    1
    68    51    52    1
    69    51    56    1
    70    52    53    1
    71    53    54    1
    72    53    59    1
    73    54    55    1
    74    54    60    1
    75    55    56    1
    76    55    92    1
    77    57    58    1
    78    60    61    1
    79    61    62    1
    80    63    62    1
    81    63    64    1
    82    63    68    1
    83    64    65    1
    84    65    66    1
    85    65    69    1
    86    66    67    1
    87    66    70    1
    88    67    68    1
    89    67    94    1
    90    70    71    1
    91    71    72    1
    92    73    72    1
    93    73    74    1
    94    73    78    1
    95    74    75    1
    96    75    76    1
    97    75    79    1
    98    76     1    1
    99    76    77    1
   100    77    78    1
   101    77    80    1
   102    80    81    1
   103    87    88    1
   104    87    89    2
   105    92    93    1
   106    94    95    1
