@<TRIPOS>MOLECULE
IMPHY016323
 11 11 0 0 0
SMALL
GASTEIGER

@<TRIPOS>ATOM
      1 O           2.8090   -0.7694    0.0000 O.3     1  UNL1       -0.3718
      2 C           3.6180   -0.1816    0.0000 C.3     1  UNL1        0.0663
      3 C           2.0000   -0.1816    0.0000 C.3     1  UNL1        0.0663
      4 C           3.3090    0.7694    0.0000 C.2     1  UNL1       -0.0605
      5 C           2.3090    0.7694    0.0000 C.2     1  UNL1       -0.0605
      6 H           3.9280   -0.7186    0.0000 H       1  UNL1        0.0604
      7 H           4.1844    0.0705    0.0000 H       1  UNL1        0.0604
      8 H           1.4336    0.0705    0.0000 H       1  UNL1        0.0604
      9 H           1.6900   -0.7186    0.0000 H       1  UNL1        0.0604
     10 H           3.6734    1.2710    0.0000 H       1  UNL1        0.0592
     11 H           1.9446    1.2710    0.0000 H       1  UNL1        0.0592
@<TRIPOS>BOND
     1     1     2    1
     2     1     3    1
     3     2     4    1
     4     2     6    1
     5     2     7    1
     6     3     5    1
     7     3     8    1
     8     3     9    1
     9     4     5    2
    10     4    10    1
    11     5    11    1
