@<TRIPOS>MOLECULE
IMPHY001225
 27 29 0 0 0
SMALL
GASTEIGER

@<TRIPOS>ATOM
      1 S           4.3523    1.6554    0.0000 S.2     1  UNL1       -0.0428
      2 S           2.6720    1.0984    0.0000 S.3     1  UNL1       -0.1022
      3 O           7.0417   -1.2601    0.0000 O.3     1  UNL1       -0.4944
      4 N           6.1767    2.0109    0.0000 N.ar    1  UNL1       -0.2393
      5 N           3.9712   -0.1040    0.0000 N.ar    1  UNL1       -0.2408
      6 C           6.6767    0.4721    0.0000 C.ar    1  UNL1        0.0531
      7 C           5.6767    0.4721    0.0000 C.ar    1  UNL1        0.0380
      8 C           6.9857    1.4231    0.0000 C.ar    1  UNL1        0.0765
      9 C           5.3677    1.4231    0.0000 C.ar    1  UNL1        0.1134
     10 C           7.3617   -0.3127    0.0000 C.ar    1  UNL1        0.1299
     11 C           8.0011    1.6554    0.0000 C.ar    1  UNL1       -0.0354
     12 C           8.3822   -0.1040    0.0000 C.ar    1  UNL1       -0.0192
     13 C           4.9917   -0.3127    0.0000 C.ar    1  UNL1        0.0399
     14 C           8.7040    0.8867    0.0000 C.ar    1  UNL1       -0.0563
     15 C           3.6493    0.8867    0.0000 C.ar    1  UNL1        0.1361
     16 C           7.7022   -2.0109    0.0000 C.3     1  UNL1        0.0788
     17 C           2.0000    0.3578    0.0000 C.3     1  UNL1       -0.0116
     18 H           8.1859    2.2472    0.0000 H       1  UNL1        0.0639
     19 H           8.7952   -0.5663    0.0000 H       1  UNL1        0.0654
     20 H           5.1901   -0.9001    0.0000 H       1  UNL1        0.0837
     21 H           9.3100    1.0179    0.0000 H       1  UNL1        0.0619
     22 H           7.2366   -2.4204    0.0000 H       1  UNL1        0.0660
     23 H           8.1117   -2.4764    0.0000 H       1  UNL1        0.0660
     24 H           8.1677   -1.6014    0.0000 H       1  UNL1        0.0660
     25 H           1.5408    0.7744    0.0000 H       1  UNL1        0.0344
     26 H           1.5834   -0.1013    0.0000 H       1  UNL1        0.0344
     27 H           2.4592   -0.0588    0.0000 H       1  UNL1        0.0344
@<TRIPOS>BOND
     1     1     9   ar
     2     1    15   ar
     3     2    15    1
     4     2    17    1
     5     3    10    1
     6     3    16    1
     7     4     8   ar
     8     4     9   ar
     9     5    13   ar
    10     5    15   ar
    11     6     7   ar
    12     6     8   ar
    13     6    10   ar
    14     7     9    1
    15     7    13   ar
    16     8    11   ar
    17    10    12   ar
    18    11    14   ar
    19    11    18    1
    20    12    14   ar
    21    12    19    1
    22    13    20    1
    23    14    21    1
    24    16    22    1
    25    16    23    1
    26    16    24    1
    27    17    25    1
    28    17    26    1
    29    17    27    1
