@<TRIPOS>MOLECULE
IMPHY014990
 52 51 0 0 0
SMALL
GASTEIGER

@<TRIPOS>ATOM
      1 O           2.5369   -2.2500    0.0000 O.3     1  UNL1       -0.4806
      2 O           3.4030   -3.7500    0.0000 O.2     1  UNL1       -0.2510
      3 C           6.8671   -2.7500    0.0000 C.3     1  UNL1       -0.0530
      4 C           7.7331   -2.2500    0.0000 C.3     1  UNL1       -0.0528
      5 C           6.0010   -2.2500    0.0000 C.3     1  UNL1       -0.0526
      6 C           8.5991   -2.7500    0.0000 C.3     1  UNL1       -0.0496
      7 C           5.1350   -2.7500    0.0000 C.3     1  UNL1       -0.0430
      8 C           9.4651   -2.2500    0.0000 C.3     1  UNL1       -0.0348
      9 C           4.2690   -2.2500    0.0000 C.3     1  UNL1        0.0448
     10 C          11.1972    1.7500    0.0000 C.3     1  UNL1       -0.0496
     11 C          10.3312    2.2500    0.0000 C.3     1  UNL1       -0.0530
     12 C          10.3312   -2.7500    0.0000 C.2     1  UNL1       -0.0876
     13 C          11.1972    0.7500    0.0000 C.3     1  UNL1       -0.0348
     14 C          10.3312    3.2500    0.0000 C.3     1  UNL1       -0.0559
     15 C          11.1972   -2.2500    0.0000 C.2     1  UNL1       -0.0842
     16 C          11.1972   -1.2500    0.0000 C.3     1  UNL1       -0.0165
     17 C          12.0632    0.2500    0.0000 C.2     1  UNL1       -0.0876
     18 C           3.4030   -2.7500    0.0000 C.2     1  UNL1        0.3047
     19 C          12.0632   -0.7500    0.0000 C.2     1  UNL1       -0.0842
     20 C           9.4651    3.7500    0.0000 C.3     1  UNL1       -0.0653
     21 H           6.4685   -3.2250    0.0000 H       1  UNL1        0.0265
     22 H           7.2656   -3.2250    0.0000 H       1  UNL1        0.0265
     23 H           8.1316   -1.7750    0.0000 H       1  UNL1        0.0265
     24 H           7.3346   -1.7750    0.0000 H       1  UNL1        0.0265
     25 H           6.3996   -1.7750    0.0000 H       1  UNL1        0.0265
     26 H           5.6025   -1.7750    0.0000 H       1  UNL1        0.0265
     27 H           8.2006   -3.2250    0.0000 H       1  UNL1        0.0268
     28 H           8.9976   -3.2250    0.0000 H       1  UNL1        0.0268
     29 H           4.7365   -3.2250    0.0000 H       1  UNL1        0.0270
     30 H           5.5335   -3.2250    0.0000 H       1  UNL1        0.0270
     31 H           9.8637   -1.7750    0.0000 H       1  UNL1        0.0307
     32 H           9.0666   -1.7750    0.0000 H       1  UNL1        0.0307
     33 H           4.6675   -1.7750    0.0000 H       1  UNL1        0.0377
     34 H           3.8705   -1.7750    0.0000 H       1  UNL1        0.0377
     35 H          11.8078    1.6423    0.0000 H       1  UNL1        0.0268
     36 H          11.4092    2.3326    0.0000 H       1  UNL1        0.0268
     37 H           9.7206    2.3577    0.0000 H       1  UNL1        0.0265
     38 H          10.1191    1.6674    0.0000 H       1  UNL1        0.0265
     39 H          10.3312   -3.3700    0.0000 H       1  UNL1        0.0569
     40 H          10.5866    0.8577    0.0000 H       1  UNL1        0.0307
     41 H          10.9851    0.1674    0.0000 H       1  UNL1        0.0307
     42 H          10.9417    3.1423    0.0000 H       1  UNL1        0.0263
     43 H          10.5432    3.8326    0.0000 H       1  UNL1        0.0263
     44 H          11.7341   -2.5600    0.0000 H       1  UNL1        0.0572
     45 H          10.9851   -0.6674    0.0000 H       1  UNL1        0.0350
     46 H          10.5866   -1.3577    0.0000 H       1  UNL1        0.0350
     47 H          12.6002    0.5600    0.0000 H       1  UNL1        0.0569
     48 H          12.6002   -1.0600    0.0000 H       1  UNL1        0.0572
     49 H           9.7751    4.2869    0.0000 H       1  UNL1        0.0230
     50 H           8.9282    4.0600    0.0000 H       1  UNL1        0.0230
     51 H           9.1551    3.2131    0.0000 H       1  UNL1        0.0230
     52 H           2.0000   -2.5600    0.0000 H       1  UNL1        0.2951
@<TRIPOS>BOND
     1     1    18    1
     2     1    52    1
     3     2    18    2
     4     3     4    1
     5     3     5    1
     6     3    21    1
     7     3    22    1
     8     4     6    1
     9     4    23    1
    10     4    24    1
    11     5     7    1
    12     5    25    1
    13     5    26    1
    14     6     8    1
    15     6    27    1
    16     6    28    1
    17     7     9    1
    18     7    29    1
    19     7    30    1
    20     8    12    1
    21     8    31    1
    22     8    32    1
    23     9    18    1
    24     9    33    1
    25     9    34    1
    26    10    11    1
    27    10    13    1
    28    10    35    1
    29    10    36    1
    30    11    14    1
    31    11    37    1
    32    11    38    1
    33    12    15    2
    34    12    39    1
    35    13    17    1
    36    13    40    1
    37    13    41    1
    38    14    20    1
    39    14    42    1
    40    14    43    1
    41    15    16    1
    42    15    44    1
    43    16    19    1
    44    16    45    1
    45    16    46    1
    46    17    19    2
    47    17    47    1
    48    19    48    1
    49    20    49    1
    50    20    50    1
    51    20    51    1
