@<TRIPOS>MOLECULE
IMPHY008290
 98 101 0 0 0
SMALL
GASTEIGER

@<TRIPOS>ATOM
      1 O           5.1657    3.8709    0.0000 O.3     1  UNL1       -0.3449
      2 O           6.0490    5.3607    0.0000 O.3     1  UNL1       -0.3405
      3 O           6.8861    2.8509    0.0000 O.3     1  UNL1       -0.3841
      4 O           8.6296    3.8308    0.0000 O.3     1  UNL1       -0.3864
      5 O           8.6527    5.8307    0.0000 O.3     1  UNL1       -0.3865
      6 O           6.0721    7.3606    0.0000 O.3     1  UNL1       -0.3924
      7 O           6.0010   -4.6706    0.0000 O.3     1  UNL1       -0.3446
      8 O           4.2690   -4.6706    0.0000 O.3     1  UNL1       -0.3405
      9 O           6.0010   -6.6706    0.0000 O.3     1  UNL1       -0.3841
     10 O           4.2690   -7.6706    0.0000 O.3     1  UNL1       -0.3864
     11 O           2.5369   -6.6706    0.0000 O.3     1  UNL1       -0.3865
     12 O           2.5369   -3.6706    0.0000 O.3     1  UNL1       -0.3924
     13 C           5.1310    0.8711    0.0000 C.3     1  UNL1       -0.0221
     14 C           4.2708    1.3810    0.0000 C.3     1  UNL1       -0.0273
     15 C           4.2824    2.3810    0.0000 C.3     1  UNL1       -0.0052
     16 C           5.1350   -0.1706    0.0000 C.3     1  UNL1       -0.0142
     17 C           6.0028    1.3610    0.0000 C.3     1  UNL1       -0.0444
     18 C           5.1541    2.8709    0.0000 C.3     1  UNL1        0.0672
     19 C           3.3550    0.8847    0.0000 C.3     1  UNL1       -0.0454
     20 C           6.0143    2.3609    0.0000 C.3     1  UNL1       -0.0255
     21 C           5.9912    0.3611    0.0000 C.3     1  UNL1       -0.0587
     22 C           3.3349   -0.1567    0.0000 C.3     1  UNL1       -0.0314
     23 C           4.2309   -0.6879    0.0000 C.2     1  UNL1       -0.0730
     24 C           3.7924    3.2527    0.0000 C.3     1  UNL1       -0.0572
     25 C           3.2824    2.3925    0.0000 C.3     1  UNL1       -0.0572
     26 C           6.0010   -0.6706    0.0000 C.3     1  UNL1       -0.0423
     27 C           6.0010   -1.6706    0.0000 C.3     1  UNL1       -0.0314
     28 C           4.2232   -1.6879    0.0000 C.2     1  UNL1       -0.0992
     29 C           6.0374    4.3608    0.0000 C.3     1  UNL1        0.1882
     30 C           6.8976    3.8508    0.0000 C.3     1  UNL1        0.1341
     31 C           6.8671   -2.1706    0.0000 C.2     1  UNL1       -0.0744
     32 C           7.7694    4.3408    0.0000 C.3     1  UNL1        0.1141
     33 C           6.9208    5.8507    0.0000 C.3     1  UNL1        0.1130
     34 C           7.7809    5.3407    0.0000 C.3     1  UNL1        0.1119
     35 C           7.7331   -1.6706    0.0000 C.3     1  UNL1       -0.0437
     36 C           6.8671   -3.1706    0.0000 C.2     1  UNL1       -0.0596
     37 C           6.9323    6.8506    0.0000 C.3     1  UNL1        0.0730
     38 C           6.0010   -3.6706    0.0000 C.3     1  UNL1        0.0692
     39 C           5.1350   -5.1706    0.0000 C.3     1  UNL1        0.1882
     40 C           5.1350   -6.1706    0.0000 C.3     1  UNL1        0.1341
     41 C           4.2690   -6.6706    0.0000 C.3     1  UNL1        0.1141
     42 C           3.4030   -6.1706    0.0000 C.3     1  UNL1        0.1119
     43 C           3.4030   -5.1706    0.0000 C.3     1  UNL1        0.1130
     44 C           2.5369   -4.6706    0.0000 C.3     1  UNL1        0.0730
     45 H           3.7400    1.7013    0.0000 H       1  UNL1        0.0312
     46 H           5.1338   -0.7906    0.0000 H       1  UNL1        0.0351
     47 H           6.2080    0.7760    0.0000 H       1  UNL1        0.0272
     48 H           6.6145    1.4616    0.0000 H       1  UNL1        0.0272
     49 H           5.6946    3.1747    0.0000 H       1  UNL1        0.0602
     50 H           3.1572    1.4724    0.0000 H       1  UNL1        0.0271
     51 H           2.7422    0.7904    0.0000 H       1  UNL1        0.0271
     52 H           6.6236    2.2462    0.0000 H       1  UNL1        0.0290
     53 H           6.2331    2.9411    0.0000 H       1  UNL1        0.0290
     54 H           5.6750   -0.1722    0.0000 H       1  UNL1        0.0235
     55 H           6.5245    0.0449    0.0000 H       1  UNL1        0.0235
     56 H           6.3074    0.8944    0.0000 H       1  UNL1        0.0235
     57 H           2.7262   -0.0388    0.0000 H       1  UNL1        0.0310
     58 H           3.1147   -0.7362    0.0000 H       1  UNL1        0.0310
     59 H           3.2896    3.0125    0.0000 H       1  UNL1        0.0236
     60 H           4.3329    3.5565    0.0000 H       1  UNL1        0.0236
     61 H           3.4886    3.7932    0.0000 H       1  UNL1        0.0236
     62 H           2.6625    2.3997    0.0000 H       1  UNL1        0.0236
     63 H           3.2753    1.7726    0.0000 H       1  UNL1        0.0236
     64 H           3.2519    2.9490    0.0000 H       1  UNL1        0.0236
     65 H           6.6116   -0.7782    0.0000 H       1  UNL1        0.0274
     66 H           6.2131   -0.0880    0.0000 H       1  UNL1        0.0274
     67 H           5.3905   -1.5629    0.0000 H       1  UNL1        0.0310
     68 H           5.7890   -2.2532    0.0000 H       1  UNL1        0.0310
     69 H           3.6839   -1.9937    0.0000 H       1  UNL1        0.0534
     70 H           4.7578   -2.0020    0.0000 H       1  UNL1        0.0534
     71 H           6.0303    3.7408    0.0000 H       1  UNL1        0.0937
     72 H           7.4309    3.5346    0.0000 H       1  UNL1        0.0671
     73 H           8.3099    4.6446    0.0000 H       1  UNL1        0.0648
     74 H           6.3874    6.1669    0.0000 H       1  UNL1        0.0647
     75 H           8.3142    5.0245    0.0000 H       1  UNL1        0.0647
     76 H           8.0431   -2.2075    0.0000 H       1  UNL1        0.0274
     77 H           8.2700   -1.3606    0.0000 H       1  UNL1        0.0274
     78 H           7.4231   -1.1336    0.0000 H       1  UNL1        0.0274
     79 H           7.4040   -3.4806    0.0000 H       1  UNL1        0.0594
     80 H           7.4194    2.5347    0.0000 H       1  UNL1        0.2101
     81 H           7.5416    6.7359    0.0000 H       1  UNL1        0.0584
     82 H           7.1511    7.4308    0.0000 H       1  UNL1        0.0584
     83 H           9.1700    4.1346    0.0000 H       1  UNL1        0.2100
     84 H           5.7890   -3.0880    0.0000 H       1  UNL1        0.0605
     85 H           5.3905   -3.7782    0.0000 H       1  UNL1        0.0605
     86 H           8.6598    6.4506    0.0000 H       1  UNL1        0.2100
     87 H           6.0793    7.9806    0.0000 H       1  UNL1        0.2095
     88 H           5.1350   -4.5506    0.0000 H       1  UNL1        0.0938
     89 H           5.1350   -6.7906    0.0000 H       1  UNL1        0.0671
     90 H           3.7320   -6.9806    0.0000 H       1  UNL1        0.0648
     91 H           3.4030   -6.7906    0.0000 H       1  UNL1        0.0647
     92 H           3.4030   -4.5506    0.0000 H       1  UNL1        0.0647
     93 H           1.9264   -4.5629    0.0000 H       1  UNL1        0.0584
     94 H           2.3249   -5.2532    0.0000 H       1  UNL1        0.0584
     95 H           6.5380   -6.3606    0.0000 H       1  UNL1        0.2101
     96 H           3.7320   -7.9806    0.0000 H       1  UNL1        0.2100
     97 H           2.0000   -6.3606    0.0000 H       1  UNL1        0.2100
     98 H           2.0000   -3.3606    0.0000 H       1  UNL1        0.2095
@<TRIPOS>BOND
     1     1    18    1
     2     1    29    1
     3     2    29    1
     4     2    33    1
     5     3    30    1
     6     3    80    1
     7     4    32    1
     8     4    83    1
     9     5    34    1
    10     5    86    1
    11     6    37    1
    12     6    87    1
    13     7    38    1
    14     7    39    1
    15     8    39    1
    16     8    43    1
    17     9    40    1
    18     9    95    1
    19    10    41    1
    20    10    96    1
    21    11    42    1
    22    11    97    1
    23    12    44    1
    24    12    98    1
    25    13    14    1
    26    13    16    1
    27    13    17    1
    28    13    21    1
    29    14    15    1
    30    14    19    1
    31    14    45    1
    32    15    18    1
    33    15    24    1
    34    15    25    1
    35    16    23    1
    36    16    26    1
    37    16    46    1
    38    17    20    1
    39    17    47    1
    40    17    48    1
    41    18    20    1
    42    18    49    1
    43    19    22    1
    44    19    50    1
    45    19    51    1
    46    20    52    1
    47    20    53    1
    48    21    54    1
    49    21    55    1
    50    21    56    1
    51    22    23    1
    52    22    57    1
    53    22    58    1
    54    23    28    2
    55    24    60    1
    56    24    61    1
    57    24    64    1
    58    25    59    1
    59    25    62    1
    60    25    63    1
    61    26    27    1
    62    26    65    1
    63    26    66    1
    64    27    31    1
    65    27    67    1
    66    27    68    1
    67    28    69    1
    68    28    70    1
    69    29    30    1
    70    29    71    1
    71    30    32    1
    72    30    72    1
    73    31    35    1
    74    31    36    2
    75    32    34    1
    76    32    73    1
    77    33    34    1
    78    33    37    1
    79    33    74    1
    80    34    75    1
    81    35    76    1
    82    35    77    1
    83    35    78    1
    84    36    38    1
    85    36    79    1
    86    37    81    1
    87    37    82    1
    88    38    84    1
    89    38    85    1
    90    39    40    1
    91    39    88    1
    92    40    41    1
    93    40    89    1
    94    41    42    1
    95    41    90    1
    96    42    43    1
    97    42    91    1
    98    43    44    1
    99    43    92    1
   100    44    93    1
   101    44    94    1
