@<TRIPOS>MOLECULE
IMPHY015687
 16 16 0 0 0
SMALL
GASTEIGER

@<TRIPOS>ATOM
      1 O           3.7320    2.2500    0.0000 O.2     1  UNL1       -0.2792
      2 N           2.8660    0.7500    0.0000 N.am    1  UNL1       -0.2881
      3 C           2.8660   -0.2500    0.0000 C.ar    1  UNL1        0.0332
      4 C           2.0000   -0.7500    0.0000 C.ar    1  UNL1       -0.0405
      5 C           3.7320   -0.7500    0.0000 C.ar    1  UNL1       -0.0405
      6 C           2.0000   -1.7500    0.0000 C.ar    1  UNL1       -0.0600
      7 C           3.7320   -1.7500    0.0000 C.ar    1  UNL1       -0.0600
      8 C           2.8660   -2.2500    0.0000 C.ar    1  UNL1       -0.0616
      9 C           3.7320    1.2500    0.0000 C.2     1  UNL1        0.2041
     10 H           1.4631   -0.4400    0.0000 H       1  UNL1        0.0636
     11 H           4.2690   -0.4400    0.0000 H       1  UNL1        0.0636
     12 H           1.4631   -2.0600    0.0000 H       1  UNL1        0.0618
     13 H           4.2690   -2.0600    0.0000 H       1  UNL1        0.0618
     14 H           2.8660   -2.8700    0.0000 H       1  UNL1        0.0618
     15 H           2.3291    1.0600    0.0000 H       1  UNL1        0.1545
     16 H           4.2690    0.9400    0.0000 H       1  UNL1        0.1255
@<TRIPOS>BOND
     1     1     9    2
     2     2     3    1
     3     2     9   am
     4     2    15    1
     5     3     4   ar
     6     3     5   ar
     7     4     6   ar
     8     4    10    1
     9     5     7   ar
    10     5    11    1
    11     6     8   ar
    12     6    12    1
    13     7     8   ar
    14     7    13    1
    15     8    14    1
    16     9    16    1
