@<TRIPOS>MOLECULE
IMPHY012136
 32 33 0 0 0
SMALL
GASTEIGER

@<TRIPOS>ATOM
      1 O           5.4920   -1.0347    0.0000 O.3     1  UNL1       -0.4815
      2 O           2.0000   -1.0000    0.0000 O.3     1  UNL1       -0.4913
      3 O           2.0000    1.0000    0.0000 O.3     1  UNL1       -0.4914
      4 C           6.3981   -0.5208    0.0000 C.3     1  UNL1        0.1235
      5 C           6.3981    0.5208    0.0000 C.2     1  UNL1       -0.0409
      6 C           4.5981   -0.5000    0.0000 C.ar    1  UNL1        0.1325
      7 C           4.5981    0.5000    0.0000 C.ar    1  UNL1        0.0202
      8 C           7.3981   -0.5247    0.0000 C.3     1  UNL1       -0.0215
      9 C           6.8947   -1.3888    0.0000 C.3     1  UNL1       -0.0215
     10 C           5.4920    1.0347    0.0000 C.2     1  UNL1       -0.0512
     11 C           3.7320   -1.0000    0.0000 C.ar    1  UNL1        0.0260
     12 C           3.7320    1.0000    0.0000 C.ar    1  UNL1       -0.0057
     13 C           2.8660   -0.5000    0.0000 C.ar    1  UNL1        0.1650
     14 C           2.8660    0.5000    0.0000 C.ar    1  UNL1        0.1623
     15 C           2.0000   -2.0000    0.0000 C.3     1  UNL1        0.0790
     16 C           2.0000    2.0000    0.0000 C.3     1  UNL1        0.0790
     17 H           6.9338    0.8329    0.0000 H       1  UNL1        0.0611
     18 H           7.3957   -1.1447    0.0000 H       1  UNL1        0.0271
     19 H           8.0181   -0.5271    0.0000 H       1  UNL1        0.0271
     20 H           7.4005    0.0953    0.0000 H       1  UNL1        0.0271
     21 H           6.3566   -1.6967    0.0000 H       1  UNL1        0.0271
     22 H           7.2027   -1.9269    0.0000 H       1  UNL1        0.0271
     23 H           7.4329   -1.0808    0.0000 H       1  UNL1        0.0271
     24 H           5.4848    1.6546    0.0000 H       1  UNL1        0.0623
     25 H           3.7320   -1.6200    0.0000 H       1  UNL1        0.0692
     26 H           3.7320    1.6200    0.0000 H       1  UNL1        0.0662
     27 H           1.3800   -2.0000    0.0000 H       1  UNL1        0.0660
     28 H           2.0000   -2.6200    0.0000 H       1  UNL1        0.0660
     29 H           2.6200   -2.0000    0.0000 H       1  UNL1        0.0660
     30 H           2.6200    2.0000    0.0000 H       1  UNL1        0.0660
     31 H           2.0000    2.6200    0.0000 H       1  UNL1        0.0660
     32 H           1.3800    2.0000    0.0000 H       1  UNL1        0.0660
@<TRIPOS>BOND
     1     1     4    1
     2     1     6    1
     3     2    13    1
     4     2    15    1
     5     3    14    1
     6     3    16    1
     7     4     5    1
     8     4     8    1
     9     4     9    1
    10     5    10    2
    11     5    17    1
    12     6     7   ar
    13     6    11   ar
    14     7    10    1
    15     7    12   ar
    16     8    18    1
    17     8    19    1
    18     8    20    1
    19     9    21    1
    20     9    22    1
    21     9    23    1
    22    10    24    1
    23    11    13   ar
    24    11    25    1
    25    12    14   ar
    26    12    26    1
    27    13    14   ar
    28    15    27    1
    29    15    28    1
    30    15    29    1
    31    16    30    1
    32    16    31    1
    33    16    32    1
