@<TRIPOS>MOLECULE
IMPHY006145
 24 24 0 0 0
SMALL
GASTEIGER

@<TRIPOS>ATOM
      1 C           2.8660    1.7500    0.0000 C.3     1  UNL1       -0.0215
      2 C           2.8660    0.7500    0.0000 C.ar    1  UNL1       -0.0448
      3 C           3.7320    2.2500    0.0000 C.3     1  UNL1       -0.0587
      4 C           2.0000    2.2500    0.0000 C.3     1  UNL1       -0.0587
      5 C           2.0000    0.2500    0.0000 C.ar    1  UNL1       -0.0581
      6 C           3.7320    0.2500    0.0000 C.ar    1  UNL1       -0.0581
      7 C           2.8660   -1.2500    0.0000 C.ar    1  UNL1       -0.0504
      8 C           2.0000   -0.7500    0.0000 C.ar    1  UNL1       -0.0586
      9 C           3.7320   -0.7500    0.0000 C.ar    1  UNL1       -0.0586
     10 C           2.8660   -2.2500    0.0000 C.3     1  UNL1       -0.0397
     11 H           2.8660    2.3700    0.0000 H       1  UNL1        0.0343
     12 H           4.0420    1.7131    0.0000 H       1  UNL1        0.0235
     13 H           4.2690    2.5600    0.0000 H       1  UNL1        0.0235
     14 H           3.4220    2.7869    0.0000 H       1  UNL1        0.0235
     15 H           2.3100    2.7869    0.0000 H       1  UNL1        0.0235
     16 H           1.4631    2.5600    0.0000 H       1  UNL1        0.0235
     17 H           1.6900    1.7131    0.0000 H       1  UNL1        0.0235
     18 H           1.4631    0.5600    0.0000 H       1  UNL1        0.0620
     19 H           4.2690    0.5600    0.0000 H       1  UNL1        0.0620
     20 H           1.4631   -1.0600    0.0000 H       1  UNL1        0.0620
     21 H           4.2690   -1.0600    0.0000 H       1  UNL1        0.0620
     22 H           2.2460   -2.2500    0.0000 H       1  UNL1        0.0278
     23 H           2.8660   -2.8700    0.0000 H       1  UNL1        0.0278
     24 H           3.4860   -2.2500    0.0000 H       1  UNL1        0.0278
@<TRIPOS>BOND
     1     1     2    1
     2     1     3    1
     3     1     4    1
     4     1    11    1
     5     2     5   ar
     6     2     6   ar
     7     3    12    1
     8     3    13    1
     9     3    14    1
    10     4    15    1
    11     4    16    1
    12     4    17    1
    13     5     8   ar
    14     5    18    1
    15     6     9   ar
    16     6    19    1
    17     7     8   ar
    18     7     9   ar
    19     7    10    1
    20     8    20    1
    21     9    21    1
    22    10    22    1
    23    10    23    1
    24    10    24    1
