@<TRIPOS>MOLECULE
IMPHY007409
 51 51 0 0 0
SMALL
GASTEIGER

@<TRIPOS>ATOM
      1 O           5.4641   -5.6900    0.0000 O.3     1  UNL1       -0.5066
      2 O           2.0000   -5.6900    0.0000 O.3     1  UNL1       -0.5066
      3 C           5.4641   -0.6900    0.0000 C.3     1  UNL1       -0.0530
      4 C           4.5981   -1.1900    0.0000 C.3     1  UNL1       -0.0528
      5 C           5.4641    0.3100    0.0000 C.3     1  UNL1       -0.0528
      6 C           4.5981   -2.1900    0.0000 C.3     1  UNL1       -0.0491
      7 C           6.3301    0.8100    0.0000 C.3     1  UNL1       -0.0496
      8 C           3.7320   -2.6900    0.0000 C.3     1  UNL1       -0.0275
      9 C           6.3301    1.8100    0.0000 C.3     1  UNL1       -0.0348
     10 C           3.7320   -3.6900    0.0000 C.ar    1  UNL1       -0.0405
     11 C           7.1962    2.3100    0.0000 C.2     1  UNL1       -0.0879
     12 C           6.3301    3.8100    0.0000 C.3     1  UNL1       -0.0348
     13 C           6.3301    4.8100    0.0000 C.3     1  UNL1       -0.0499
     14 C           7.1962    3.3100    0.0000 C.2     1  UNL1       -0.0879
     15 C           2.8660   -4.1900    0.0000 C.ar    1  UNL1       -0.0168
     16 C           4.5981   -4.1900    0.0000 C.ar    1  UNL1       -0.0168
     17 C           5.4641    5.3100    0.0000 C.3     1  UNL1       -0.0556
     18 C           4.5981   -5.1900    0.0000 C.ar    1  UNL1        0.1206
     19 C           2.8660   -5.1900    0.0000 C.ar    1  UNL1        0.1206
     20 C           3.7320   -5.6900    0.0000 C.ar    1  UNL1        0.0213
     21 C           5.4641    6.3100    0.0000 C.3     1  UNL1       -0.0653
     22 H           5.6762   -1.2726    0.0000 H       1  UNL1        0.0265
     23 H           6.0747   -0.5823    0.0000 H       1  UNL1        0.0265
     24 H           4.3860   -0.6074    0.0000 H       1  UNL1        0.0265
     25 H           3.9875   -1.2977    0.0000 H       1  UNL1        0.0265
     26 H           5.2520    0.8926    0.0000 H       1  UNL1        0.0265
     27 H           4.8535    0.2023    0.0000 H       1  UNL1        0.0265
     28 H           4.8101   -2.7726    0.0000 H       1  UNL1        0.0268
     29 H           5.2087   -2.0823    0.0000 H       1  UNL1        0.0268
     30 H           6.5422    0.2274    0.0000 H       1  UNL1        0.0268
     31 H           6.9407    0.9177    0.0000 H       1  UNL1        0.0268
     32 H           3.5200   -2.1074    0.0000 H       1  UNL1        0.0313
     33 H           3.1215   -2.7977    0.0000 H       1  UNL1        0.0313
     34 H           6.1181    2.3926    0.0000 H       1  UNL1        0.0307
     35 H           5.7196    1.7023    0.0000 H       1  UNL1        0.0307
     36 H           7.7331    2.0000    0.0000 H       1  UNL1        0.0569
     37 H           5.7196    3.9177    0.0000 H       1  UNL1        0.0307
     38 H           6.1181    3.2274    0.0000 H       1  UNL1        0.0307
     39 H           6.9407    4.7023    0.0000 H       1  UNL1        0.0268
     40 H           6.5422    5.3926    0.0000 H       1  UNL1        0.0268
     41 H           7.7331    3.6200    0.0000 H       1  UNL1        0.0569
     42 H           2.3291   -3.8800    0.0000 H       1  UNL1        0.0657
     43 H           5.1350   -3.8800    0.0000 H       1  UNL1        0.0657
     44 H           4.8535    5.4177    0.0000 H       1  UNL1        0.0263
     45 H           5.2520    4.7274    0.0000 H       1  UNL1        0.0263
     46 H           3.7320   -6.3100    0.0000 H       1  UNL1        0.0691
     47 H           6.0841    6.3100    0.0000 H       1  UNL1        0.0230
     48 H           5.4641    6.9300    0.0000 H       1  UNL1        0.0230
     49 H           4.8441    6.3100    0.0000 H       1  UNL1        0.0230
     50 H           5.4641   -6.3100    0.0000 H       1  UNL1        0.2921
     51 H           2.0000   -6.3100    0.0000 H       1  UNL1        0.2921
@<TRIPOS>BOND
     1     1    18    1
     2     1    50    1
     3     2    19    1
     4     2    51    1
     5     3     4    1
     6     3     5    1
     7     3    22    1
     8     3    23    1
     9     4     6    1
    10     4    24    1
    11     4    25    1
    12     5     7    1
    13     5    26    1
    14     5    27    1
    15     6     8    1
    16     6    28    1
    17     6    29    1
    18     7     9    1
    19     7    30    1
    20     7    31    1
    21     8    10    1
    22     8    32    1
    23     8    33    1
    24     9    11    1
    25     9    34    1
    26     9    35    1
    27    10    15   ar
    28    10    16   ar
    29    11    14    2
    30    11    36    1
    31    12    13    1
    32    12    14    1
    33    12    37    1
    34    12    38    1
    35    13    17    1
    36    13    39    1
    37    13    40    1
    38    14    41    1
    39    15    19   ar
    40    15    42    1
    41    16    18   ar
    42    16    43    1
    43    17    21    1
    44    17    44    1
    45    17    45    1
    46    18    20   ar
    47    19    20   ar
    48    20    46    1
    49    21    47    1
    50    21    48    1
    51    21    49    1
