@<TRIPOS>MOLECULE
IMPHY001168
 84 88 0 0 0
SMALL
GASTEIGER

@<TRIPOS>ATOM
      1 O           2.9883    0.3043    0.0000 O.3     1  UNL1       -0.3673
      2 O           8.3524    5.4126    0.0000 O.2     1  UNL1       -0.2968
      3 O           2.6748   -2.2643    0.0000 O.3     1  UNL1       -0.3651
      4 O           2.6399   -4.9753    0.0000 O.3     1  UNL1       -0.3866
      5 C           4.8343    2.3675    0.0000 C.3     1  UNL1       -0.0233
      6 C           4.8343    3.3675    0.0000 C.3     1  UNL1       -0.0296
      7 C           5.7004    3.8675    0.0000 C.3     1  UNL1       -0.0246
      8 C           3.8881    2.0628    0.0000 C.3     1  UNL1       -0.0064
      9 C           6.5664    3.3675    0.0000 C.3     1  UNL1       -0.0235
     10 C           3.8881    3.6723    0.0000 C.3     1  UNL1       -0.0488
     11 C           5.7004    1.8675    0.0000 C.3     1  UNL1       -0.0467
     12 C           3.3045    2.8675    0.0000 C.3     1  UNL1       -0.0468
     13 C           6.5664    2.3675    0.0000 C.3     1  UNL1       -0.0483
     14 C           3.5774    1.1123    0.0000 C.3     1  UNL1        0.0706
     15 C           7.4764    3.8744    0.0000 C.3     1  UNL1        0.0267
     16 C           5.6843    4.9090    0.0000 C.3     1  UNL1       -0.0404
     17 C           4.8343    1.3675    0.0000 C.3     1  UNL1       -0.0589
     18 C           4.8343    4.3675    0.0000 C.3     1  UNL1       -0.0590
     19 C           4.5280    0.8016    0.0000 C.3     1  UNL1       -0.0213
     20 C           6.5823    5.4368    0.0000 C.3     1  UNL1        0.0069
     21 C           7.4844    4.9160    0.0000 C.2     1  UNL1        0.1392
     22 C           3.5746   -0.5057    0.0000 C.3     1  UNL1        0.0881
     23 C           2.7694    1.7015    0.0000 C.3     1  UNL1       -0.0355
     24 C           4.5262   -0.1984    0.0000 C.3     1  UNL1       -0.0213
     25 C           8.4763    3.8628    0.0000 C.3     1  UNL1       -0.0528
     26 C           7.9663    3.0026    0.0000 C.3     1  UNL1       -0.0528
     27 C           3.2640   -1.4563    0.0000 C.3     1  UNL1        0.0933
     28 C           4.2145   -1.7669    0.0000 C.3     1  UNL1       -0.0191
     29 C           2.4560   -0.8671    0.0000 C.3     1  UNL1       -0.0334
     30 C           4.2128   -2.7669    0.0000 C.3     1  UNL1       -0.0212
     31 C           3.2612   -3.0743    0.0000 C.3     1  UNL1        0.0877
     32 C           2.9505   -4.0248    0.0000 C.3     1  UNL1        0.0865
     33 C           3.9010   -4.3355    0.0000 C.3     1  UNL1       -0.0339
     34 C           2.0000   -3.7142    0.0000 C.3     1  UNL1       -0.0339
     35 H           5.5704    2.9425    0.0000 H       1  UNL1        0.0311
     36 H           3.0484    1.9309    0.0000 H       1  UNL1        0.0334
     37 H           7.2992    2.9369    0.0000 H       1  UNL1        0.0315
     38 H           4.1391    4.2392    0.0000 H       1  UNL1        0.0268
     39 H           3.3507    3.9815    0.0000 H       1  UNL1        0.0268
     40 H           5.3018    1.3926    0.0000 H       1  UNL1        0.0271
     41 H           6.0989    1.3926    0.0000 H       1  UNL1        0.0271
     42 H           2.8436    3.2823    0.0000 H       1  UNL1        0.0269
     43 H           2.8436    2.4528    0.0000 H       1  UNL1        0.0269
     44 H           6.7784    1.7849    0.0000 H       1  UNL1        0.0269
     45 H           7.1770    2.4752    0.0000 H       1  UNL1        0.0269
     46 H           5.4663    5.4894    0.0000 H       1  UNL1        0.0275
     47 H           5.0752    4.7936    0.0000 H       1  UNL1        0.0275
     48 H           4.2143    1.3675    0.0000 H       1  UNL1        0.0235
     49 H           4.8343    0.7475    0.0000 H       1  UNL1        0.0235
     50 H           5.4543    1.3675    0.0000 H       1  UNL1        0.0235
     51 H           5.1443    4.9045    0.0000 H       1  UNL1        0.0235
     52 H           4.2974    4.6775    0.0000 H       1  UNL1        0.0235
     53 H           4.5243    3.8306    0.0000 H       1  UNL1        0.0235
     54 H           5.1445    0.7358    0.0000 H       1  UNL1        0.0294
     55 H           4.6579    1.4078    0.0000 H       1  UNL1        0.0294
     56 H           6.9796    5.9128    0.0000 H       1  UNL1        0.0342
     57 H           6.1814    5.9097    0.0000 H       1  UNL1        0.0342
     58 H           2.7349   -0.6373    0.0000 H       1  UNL1        0.0625
     59 H           3.1347    2.2024    0.0000 H       1  UNL1        0.0257
     60 H           2.2685    2.0668    0.0000 H       1  UNL1        0.0257
     61 H           2.4042    1.2005    0.0000 H       1  UNL1        0.0257
     62 H           4.6541   -0.8050    0.0000 H       1  UNL1        0.0292
     63 H           5.1430   -0.1346    0.0000 H       1  UNL1        0.0292
     64 H           7.4258    2.6989    0.0000 H       1  UNL1        0.0239
     65 H           8.2701    2.4622    0.0000 H       1  UNL1        0.0239
     66 H           8.4691    3.2429    0.0000 H       1  UNL1        0.0239
     67 H           8.5068    3.3064    0.0000 H       1  UNL1        0.0239
     68 H           9.0963    3.8556    0.0000 H       1  UNL1        0.0239
     69 H           8.4835    4.4828    0.0000 H       1  UNL1        0.0239
     70 H           4.8310   -1.8328    0.0000 H       1  UNL1        0.0294
     71 H           4.3445   -1.1607    0.0000 H       1  UNL1        0.0294
     72 H           2.8213   -0.3661    0.0000 H       1  UNL1        0.0258
     73 H           1.9550   -0.5018    0.0000 H       1  UNL1        0.0258
     74 H           2.0907   -1.3680    0.0000 H       1  UNL1        0.0258
     75 H           4.3406   -3.3736    0.0000 H       1  UNL1        0.0292
     76 H           4.8295   -2.7032    0.0000 H       1  UNL1        0.0292
     77 H           2.6486   -3.1702    0.0000 H       1  UNL1        0.0625
     78 H           3.7084   -4.9248    0.0000 H       1  UNL1        0.0258
     79 H           4.4904   -4.5281    0.0000 H       1  UNL1        0.0258
     80 H           4.0936   -3.7462    0.0000 H       1  UNL1        0.0258
     81 H           2.1926   -3.1248    0.0000 H       1  UNL1        0.0258
     82 H           1.4107   -3.5215    0.0000 H       1  UNL1        0.0258
     83 H           1.8074   -4.3035    0.0000 H       1  UNL1        0.0258
     84 H           3.0539   -5.4368    0.0000 H       1  UNL1        0.2102
@<TRIPOS>BOND
     1     1    14    1
     2     1    22    1
     3     2    21    2
     4     3    27    1
     5     3    31    1
     6     4    32    1
     7     4    84    1
     8     5     6    1
     9     5     8    1
    10     5    11    1
    11     5    17    1
    12     6     7    1
    13     6    10    1
    14     6    35    1
    15     7     9    1
    16     7    16    1
    17     7    18    1
    18     8    12    1
    19     8    14    1
    20     8    36    1
    21     9    13    1
    22     9    15    1
    23     9    37    1
    24    10    12    1
    25    10    38    1
    26    10    39    1
    27    11    13    1
    28    11    40    1
    29    11    41    1
    30    12    42    1
    31    12    43    1
    32    13    44    1
    33    13    45    1
    34    14    19    1
    35    14    23    1
    36    15    21    1
    37    15    25    1
    38    15    26    1
    39    16    20    1
    40    16    46    1
    41    16    47    1
    42    17    48    1
    43    17    49    1
    44    17    50    1
    45    18    51    1
    46    18    52    1
    47    18    53    1
    48    19    24    1
    49    19    54    1
    50    19    55    1
    51    20    21    1
    52    20    56    1
    53    20    57    1
    54    22    24    1
    55    22    27    1
    56    22    58    1
    57    23    59    1
    58    23    60    1
    59    23    61    1
    60    24    62    1
    61    24    63    1
    62    25    66    1
    63    25    68    1
    64    25    69    1
    65    26    64    1
    66    26    65    1
    67    26    67    1
    68    27    28    1
    69    27    29    1
    70    28    30    1
    71    28    70    1
    72    28    71    1
    73    29    72    1
    74    29    73    1
    75    29    74    1
    76    30    31    1
    77    30    75    1
    78    30    76    1
    79    31    32    1
    80    31    77    1
    81    32    33    1
    82    32    34    1
    83    33    78    1
    84    33    79    1
    85    33    80    1
    86    34    81    1
    87    34    82    1
    88    34    83    1
