@<TRIPOS>MOLECULE
IMPHY000332
 247 258 0 0 0
SMALL
GASTEIGER

@<TRIPOS>ATOM
      1 O          10.3312   -6.8449    0.0000 O.3     1  UNL1       -0.3449
      2 O          13.0065    0.9073    0.0000 O.3     1  UNL1       -0.3906
      3 O          10.2911    3.5485    0.0000 O.3     1  UNL1       -0.4575
      4 O          12.0850    2.4346    0.0000 O.3     1  UNL1       -0.4318
      5 O          12.9567    1.9446    0.0000 O.2     1  UNL1       -0.2500
      6 O           8.5991   -6.8449    0.0000 O.3     1  UNL1       -0.3405
      7 O          10.3312   -8.8449    0.0000 O.3     1  UNL1       -0.3378
      8 O          12.9336    3.9445    0.0000 O.3     1  UNL1       -0.3312
      9 O          12.0231    3.5618    0.0000 O.2     1  UNL1       -0.2453
     10 O           8.5991   -9.8449    0.0000 O.3     1  UNL1       -0.3864
     11 O          13.8285    1.4547    0.0000 O.3     1  UNL1       -0.3366
     12 O           6.8671   -8.8449    0.0000 O.3     1  UNL1       -0.3865
     13 O          15.5488    2.4746    0.0000 O.3     1  UNL1       -0.3863
     14 O           6.0010   -7.3449    0.0000 O.3     1  UNL1       -0.3460
     15 O           9.4651  -10.3449    0.0000 O.3     1  UNL1       -0.3461
     16 O          15.5257    4.4745    0.0000 O.3     1  UNL1       -0.3865
     17 O          14.6424    5.9644    0.0000 O.3     1  UNL1       -0.3461
     18 O          15.5604    1.4747    0.0000 O.3     1  UNL1       -0.3461
     19 O          12.0632   -9.8449    0.0000 O.3     1  UNL1       -0.3841
     20 O          12.0632  -11.8449    0.0000 O.3     1  UNL1       -0.3864
     21 O           4.2690   -7.3449    0.0000 O.3     1  UNL1       -0.3405
     22 O          13.8516   -0.5452    0.0000 O.3     1  UNL1       -0.3841
     23 O          10.3312  -12.8449    0.0000 O.3     1  UNL1       -0.3869
     24 O          15.5951   -1.5251    0.0000 O.3     1  UNL1       -0.3864
     25 O          15.4910    7.4743    0.0000 O.3     1  UNL1       -0.3431
     26 O           6.0010   -5.3449    0.0000 O.3     1  UNL1       -0.3841
     27 O          17.3155   -0.5051    0.0000 O.3     1  UNL1       -0.3869
     28 O           9.3827    9.0416    0.0000 O.3     1  UNL1       -0.3384
     29 O           4.2690   -4.3449    0.0000 O.3     1  UNL1       -0.3864
     30 O           2.5369   -5.3449    0.0000 O.3     1  UNL1       -0.3865
     31 O          12.8989    6.9443    0.0000 O.3     1  UNL1       -0.3841
     32 O          12.8758    8.9442    0.0000 O.3     1  UNL1       -0.3864
     33 O           2.5369   -8.3449    0.0000 O.3     1  UNL1       -0.3924
     34 O          14.5961    9.9641    0.0000 O.3     1  UNL1       -0.3866
     35 O           8.5051   10.5349    0.0000 O.3     1  UNL1       -0.3405
     36 O           7.6584    8.0283    0.0000 O.3     1  UNL1       -0.3841
     37 O           5.9187    9.0150    0.0000 O.3     1  UNL1       -0.3864
     38 O           5.9033   11.0149    0.0000 O.3     1  UNL1       -0.3865
     39 O           8.4897   12.5349    0.0000 O.3     1  UNL1       -0.3924
     40 C          11.2322   -2.1446    0.0000 C.3     1  UNL1       -0.0193
     41 C          10.3681   -2.6480    0.0000 C.3     1  UNL1       -0.0257
     42 C          10.3561   -3.6895    0.0000 C.3     1  UNL1       -0.0250
     43 C          11.2284   -1.1446    0.0000 C.3     1  UNL1       -0.0028
     44 C          11.2562   -4.2138    0.0000 C.3     1  UNL1       -0.0278
     45 C          12.1442   -2.6480    0.0000 C.3     1  UNL1       -0.0463
     46 C          10.3604   -0.6480    0.0000 C.2     1  UNL1       -0.0627
     47 C          12.1562   -3.6895    0.0000 C.3     1  UNL1       -0.0486
     48 C          11.2687   -5.2987    0.0000 C.3     1  UNL1       -0.0052
     49 C          10.3404    0.3935    0.0000 C.3     1  UNL1       -0.0005
     50 C           9.5002   -2.1513    0.0000 C.3     1  UNL1       -0.0306
     51 C          12.1364   -0.6343    0.0000 C.3     1  UNL1       -0.0162
     52 C           9.4062   -4.2138    0.0000 C.3     1  UNL1       -0.0447
     53 C          11.2363    0.9247    0.0000 C.3     1  UNL1        0.1033
     54 C          12.1404    0.4073    0.0000 C.3     1  UNL1        0.0724
     55 C          12.2164   -1.9672    0.0000 C.3     1  UNL1       -0.0585
     56 C          10.3312   -5.8449    0.0000 C.3     1  UNL1        0.0672
     57 C           9.4963   -1.1513    0.0000 C.2     1  UNL1       -0.0836
     58 C           9.4920   -3.1862    0.0000 C.3     1  UNL1       -0.0590
     59 C           9.3936   -5.2987    0.0000 C.3     1  UNL1       -0.0255
     60 C          12.2138   -1.3145    0.0000 C.3     1  UNL1       -0.0552
     61 C           9.3864    0.9104    0.0000 C.3     1  UNL1       -0.0368
     62 C          11.2405    2.0096    0.0000 C.3     1  UNL1        0.0036
     63 C           9.3655    1.9952    0.0000 C.3     1  UNL1        0.0028
     64 C          10.2988    2.5485    0.0000 C.3     1  UNL1        0.1096
     65 C          12.2687   -5.2910    0.0000 C.3     1  UNL1       -0.0572
     66 C          11.7754   -6.1609    0.0000 C.3     1  UNL1       -0.0572
     67 C          12.0965    1.4346    0.0000 C.2     1  UNL1        0.3188
     68 C           8.8522    2.8534    0.0000 C.3     1  UNL1       -0.0564
     69 C           8.3656    1.9798    0.0000 C.3     1  UNL1       -0.0564
     70 C           9.4651   -7.3449    0.0000 C.3     1  UNL1        0.1886
     71 C           9.4651   -8.3449    0.0000 C.3     1  UNL1        0.1406
     72 C          12.9452    2.9446    0.0000 C.3     1  UNL1        0.2341
     73 C          11.1532    4.0552    0.0000 C.2     1  UNL1        0.3349
     74 C           8.5991   -8.8449    0.0000 C.3     1  UNL1        0.1144
     75 C           7.7331   -7.3449    0.0000 C.3     1  UNL1        0.1134
     76 C           7.7331   -8.3449    0.0000 C.3     1  UNL1        0.1119
     77 C          13.8169    2.4546    0.0000 C.3     1  UNL1        0.1520
     78 C          11.1455    5.0551    0.0000 C.2     1  UNL1        0.0296
     79 C          14.6771    2.9646    0.0000 C.3     1  UNL1        0.1155
     80 C          13.7938    4.4545    0.0000 C.3     1  UNL1        0.1144
     81 C           6.8671   -6.8449    0.0000 C.3     1  UNL1        0.0796
     82 C          14.6655    3.9645    0.0000 C.3     1  UNL1        0.1120
     83 C          10.3312   -9.8449    0.0000 C.3     1  UNL1        0.1881
     84 C          12.0077    5.5618    0.0000 C.3     1  UNL1       -0.0332
     85 C          10.2757    5.5484    0.0000 C.2     1  UNL1       -0.0742
     86 C          13.7822    5.4544    0.0000 C.3     1  UNL1        0.0796
     87 C          11.1972  -10.3449    0.0000 C.3     1  UNL1        0.1341
     88 C          14.7002    0.9647    0.0000 C.3     1  UNL1        0.1882
     89 C          11.1972  -11.3449    0.0000 C.3     1  UNL1        0.1137
     90 C          10.2680    6.5484    0.0000 C.3     1  UNL1       -0.0311
     91 C          14.7118   -0.0352    0.0000 C.3     1  UNL1        0.1341
     92 C           9.4651  -11.3449    0.0000 C.3     1  UNL1        0.0792
     93 C           5.1350   -6.8449    0.0000 C.3     1  UNL1        0.1880
     94 C          10.3312  -11.8449    0.0000 C.3     1  UNL1        0.1069
     95 C           9.3981    7.0417    0.0000 C.3     1  UNL1       -0.0168
     96 C          15.5835   -0.5252    0.0000 C.3     1  UNL1        0.1137
     97 C           5.1350   -5.8449    0.0000 C.3     1  UNL1        0.1341
     98 C          16.4322    0.9848    0.0000 C.3     1  UNL1        0.0792
     99 C          16.4437   -0.0152    0.0000 C.3     1  UNL1        0.1069
    100 C          14.6308    6.9643    0.0000 C.3     1  UNL1        0.1879
    101 C           9.3904    8.0417    0.0000 C.3     1  UNL1        0.0879
    102 C           4.2690   -5.3449    0.0000 C.3     1  UNL1        0.1141
    103 C           3.4030   -6.8449    0.0000 C.3     1  UNL1        0.1130
    104 C           3.4030   -5.8449    0.0000 C.3     1  UNL1        0.1119
    105 C          13.7591    7.4543    0.0000 C.3     1  UNL1        0.1341
    106 C          13.7475    8.4542    0.0000 C.3     1  UNL1        0.1140
    107 C          10.3904    8.0494    0.0000 C.3     1  UNL1       -0.0321
    108 C           8.3904    8.0340    0.0000 C.2     1  UNL1       -0.0599
    109 C          15.4795    8.4742    0.0000 C.3     1  UNL1        0.0873
    110 C           2.5369   -7.3449    0.0000 C.3     1  UNL1        0.0730
    111 C          14.6077    8.9642    0.0000 C.3     1  UNL1        0.1095
    112 C           8.5128    9.5350    0.0000 C.3     1  UNL1        0.1889
    113 C          16.3396    8.9842    0.0000 C.3     1  UNL1       -0.0361
    114 C           7.8971    7.1641    0.0000 C.2     1  UNL1       -0.1000
    115 C           7.6507    9.0283    0.0000 C.3     1  UNL1        0.1341
    116 C           6.7808    9.5216    0.0000 C.3     1  UNL1        0.1141
    117 C           7.6353   11.0282    0.0000 C.3     1  UNL1        0.1130
    118 C           6.7731   10.5216    0.0000 C.3     1  UNL1        0.1119
    119 C           7.6276   12.0282    0.0000 C.3     1  UNL1        0.0730
    120 H          11.1026   -3.0758    0.0000 H       1  UNL1        0.0315
    121 H          11.9955   -4.6331    0.0000 H       1  UNL1        0.0312
    122 H          12.7562   -2.7470    0.0000 H       1  UNL1        0.0271
    123 H          12.3465   -2.0619    0.0000 H       1  UNL1        0.0271
    124 H          12.3720   -4.2708    0.0000 H       1  UNL1        0.0268
    125 H          12.7658   -3.5764    0.0000 H       1  UNL1        0.0268
    126 H           9.6142   -0.0485    0.0000 H       1  UNL1        0.0357
    127 H           8.8892   -2.0460    0.0000 H       1  UNL1        0.0310
    128 H           9.2904   -2.7347    0.0000 H       1  UNL1        0.0310
    129 H          12.3432   -1.2188    0.0000 H       1  UNL1        0.0299
    130 H          12.7477   -0.5306    0.0000 H       1  UNL1        0.0299
    131 H           9.2039   -3.6278    0.0000 H       1  UNL1        0.0271
    132 H           8.7941   -4.3128    0.0000 H       1  UNL1        0.0271
    133 H          12.6768    0.0963    0.0000 H       1  UNL1        0.0605
    134 H          12.3264   -2.5774    0.0000 H       1  UNL1        0.0235
    135 H          12.8265   -1.8572    0.0000 H       1  UNL1        0.0235
    136 H          12.1063   -1.3570    0.0000 H       1  UNL1        0.0235
    137 H          10.8687   -6.1538    0.0000 H       1  UNL1        0.0602
    138 H           8.9582   -0.8434    0.0000 H       1  UNL1        0.0572
    139 H           9.8041   -2.6505    0.0000 H       1  UNL1        0.0235
    140 H           8.9563   -2.8741    0.0000 H       1  UNL1        0.0235
    141 H           9.1799   -3.7219    0.0000 H       1  UNL1        0.0235
    142 H           8.7840   -5.1856    0.0000 H       1  UNL1        0.0290
    143 H           9.1778   -5.8800    0.0000 H       1  UNL1        0.0290
    144 H          12.1085   -1.9255    0.0000 H       1  UNL1        0.0238
    145 H          12.8248   -1.4198    0.0000 H       1  UNL1        0.0238
    146 H          12.3191   -0.7035    0.0000 H       1  UNL1        0.0238
    147 H           8.7736    1.0047    0.0000 H       1  UNL1        0.0278
    148 H           9.1887    0.3228    0.0000 H       1  UNL1        0.0278
    149 H          11.8510    1.9012    0.0000 H       1  UNL1        0.0313
    150 H          11.4518    2.5925    0.0000 H       1  UNL1        0.0313
    151 H          10.8339    2.8616    0.0000 H       1  UNL1        0.0739
    152 H          11.2408   -6.4750    0.0000 H       1  UNL1        0.0236
    153 H          12.2734   -5.9110    0.0000 H       1  UNL1        0.0236
    154 H          12.8887   -5.2862    0.0000 H       1  UNL1        0.0236
    155 H          12.2639   -4.6710    0.0000 H       1  UNL1        0.0236
    156 H          12.0895   -6.6954    0.0000 H       1  UNL1        0.0236
    157 H          12.3099   -5.8468    0.0000 H       1  UNL1        0.0236
    158 H          13.5434    0.5973    0.0000 H       1  UNL1        0.2098
    159 H           9.3843    3.1716    0.0000 H       1  UNL1        0.0236
    160 H           8.5340    3.3855    0.0000 H       1  UNL1        0.0236
    161 H           8.3201    2.5352    0.0000 H       1  UNL1        0.0236
    162 H           8.3561    2.5997    0.0000 H       1  UNL1        0.0236
    163 H           7.7457    1.9702    0.0000 H       1  UNL1        0.0236
    164 H           8.3752    1.3598    0.0000 H       1  UNL1        0.0236
    165 H          10.0021   -7.6549    0.0000 H       1  UNL1        0.0938
    166 H           9.4651   -8.9649    0.0000 H       1  UNL1        0.0675
    167 H          12.4047    3.2483    0.0000 H       1  UNL1        0.1085
    168 H           8.0622   -9.1549    0.0000 H       1  UNL1        0.0648
    169 H           7.7331   -6.7249    0.0000 H       1  UNL1        0.0647
    170 H           7.1962   -8.0349    0.0000 H       1  UNL1        0.0647
    171 H          13.2836    2.1384    0.0000 H       1  UNL1        0.0687
    172 H          15.2104    3.2808    0.0000 H       1  UNL1        0.0648
    173 H          13.2533    4.7582    0.0000 H       1  UNL1        0.0647
    174 H           7.2656   -6.3699    0.0000 H       1  UNL1        0.0587
    175 H           6.4685   -6.3699    0.0000 H       1  UNL1        0.0587
    176 H          14.6584    4.5845    0.0000 H       1  UNL1        0.0647
    177 H           9.7942   -9.5349    0.0000 H       1  UNL1        0.0937
    178 H           8.0622  -10.1549    0.0000 H       1  UNL1        0.2100
    179 H           6.8671   -9.4649    0.0000 H       1  UNL1        0.2100
    180 H          12.3218    5.0273    0.0000 H       1  UNL1        0.0280
    181 H          12.5422    5.8759    0.0000 H       1  UNL1        0.0280
    182 H          11.6936    6.0963    0.0000 H       1  UNL1        0.0280
    183 H           9.7412    5.2343    0.0000 H       1  UNL1        0.0577
    184 H          13.5634    6.0345    0.0000 H       1  UNL1        0.0587
    185 H          13.1729    5.3397    0.0000 H       1  UNL1        0.0587
    186 H          11.7341  -10.6549    0.0000 H       1  UNL1        0.0671
    187 H          14.6930    1.5847    0.0000 H       1  UNL1        0.0937
    188 H          16.0822    2.7908    0.0000 H       1  UNL1        0.2100
    189 H          16.0662    4.1707    0.0000 H       1  UNL1        0.2100
    190 H          11.1972  -11.9649    0.0000 H       1  UNL1        0.0647
    191 H          10.8794    6.4454    0.0000 H       1  UNL1        0.0309
    192 H          10.4755    7.1326    0.0000 H       1  UNL1        0.0309
    193 H          14.7189   -0.6552    0.0000 H       1  UNL1        0.0671
    194 H           8.8546  -11.2372    0.0000 H       1  UNL1        0.0587
    195 H           9.2531  -11.9275    0.0000 H       1  UNL1        0.0587
    196 H           5.1350   -7.4649    0.0000 H       1  UNL1        0.0937
    197 H           9.7942  -12.1549    0.0000 H       1  UNL1        0.0643
    198 H          12.6002  -10.1549    0.0000 H       1  UNL1        0.2101
    199 H           8.7867    7.1447    0.0000 H       1  UNL1        0.0299
    200 H           9.1906    6.4575    0.0000 H       1  UNL1        0.0299
    201 H          16.1240   -0.8289    0.0000 H       1  UNL1        0.0647
    202 H           5.1350   -5.2249    0.0000 H       1  UNL1        0.0671
    203 H          17.0439    0.8842    0.0000 H       1  UNL1        0.0587
    204 H          16.6375    1.5698    0.0000 H       1  UNL1        0.0587
    205 H          16.9770    0.3010    0.0000 H       1  UNL1        0.0643
    206 H          14.0975    6.6481    0.0000 H       1  UNL1        0.0937
    207 H          12.0632  -12.4649    0.0000 H       1  UNL1        0.2100
    208 H           3.7320   -5.0349    0.0000 H       1  UNL1        0.0648
    209 H          13.8588   -1.1651    0.0000 H       1  UNL1        0.2101
    210 H           9.7942  -13.1549    0.0000 H       1  UNL1        0.2100
    211 H           3.4030   -7.4649    0.0000 H       1  UNL1        0.0647
    212 H           3.9650   -5.2249    0.0000 H       1  UNL1        0.0647
    213 H          13.2186    7.7580    0.0000 H       1  UNL1        0.0671
    214 H          16.1356   -1.8289    0.0000 H       1  UNL1        0.2100
    215 H           6.0010   -4.7249    0.0000 H       1  UNL1        0.2101
    216 H          13.7404    9.0742    0.0000 H       1  UNL1        0.0648
    217 H          10.3952    7.4294    0.0000 H       1  UNL1        0.0260
    218 H          11.0104    8.0542    0.0000 H       1  UNL1        0.0260
    219 H          10.3856    8.6694    0.0000 H       1  UNL1        0.0260
    220 H          17.8488   -0.1889    0.0000 H       1  UNL1        0.2100
    221 H           8.0763    8.5685    0.0000 H       1  UNL1        0.0594
    222 H          16.0199    8.1705    0.0000 H       1  UNL1        0.0621
    223 H           2.3249   -6.7622    0.0000 H       1  UNL1        0.0584
    224 H           1.9264   -7.4525    0.0000 H       1  UNL1        0.0584
    225 H          15.1410    9.2804    0.0000 H       1  UNL1        0.0646
    226 H           3.7320   -4.0349    0.0000 H       1  UNL1        0.2100
    227 H           2.0000   -5.6549    0.0000 H       1  UNL1        0.2100
    228 H          12.3584    7.2481    0.0000 H       1  UNL1        0.2101
    229 H           8.5176    8.9150    0.0000 H       1  UNL1        0.0938
    230 H          16.6558    8.4509    0.0000 H       1  UNL1        0.0255
    231 H          16.8730    9.3004    0.0000 H       1  UNL1        0.0255
    232 H          16.0235    9.5175    0.0000 H       1  UNL1        0.0255
    233 H           7.2772    7.1593    0.0000 H       1  UNL1        0.0533
    234 H           8.2113    6.6296    0.0000 H       1  UNL1        0.0533
    235 H          12.8686    9.5641    0.0000 H       1  UNL1        0.2100
    236 H           2.0000   -8.6549    0.0000 H       1  UNL1        0.2095
    237 H           7.1162    8.7142    0.0000 H       1  UNL1        0.0671
    238 H          15.1295   10.2803    0.0000 H       1  UNL1        0.2100
    239 H           6.2415    9.8275    0.0000 H       1  UNL1        0.0648
    240 H           8.1698   11.3424    0.0000 H       1  UNL1        0.0647
    241 H           6.7684   11.1416    0.0000 H       1  UNL1        0.0647
    242 H           7.1239    7.7142    0.0000 H       1  UNL1        0.2101
    243 H           7.4110   12.6092    0.0000 H       1  UNL1        0.0584
    244 H           7.0178   11.9158    0.0000 H       1  UNL1        0.0584
    245 H           5.3794    9.3208    0.0000 H       1  UNL1        0.2100
    246 H           5.8985   11.6349    0.0000 H       1  UNL1        0.2100
    247 H           8.4849   13.1549    0.0000 H       1  UNL1        0.2095
@<TRIPOS>BOND
     1    56     1    1
     2    70     1    1
     3    54     2    1
     4     2   158    1
     5    64     3    1
     6     3    73    1
     7     4    67    1
     8    72     4    1
     9     5    67    2
    10     6    70    1
    11     6    75    1
    12    71     7    1
    13    83     7    1
    14     8    72    1
    15     8    80    1
    16     9    73    2
    17    74    10    1
    18    10   178    1
    19    77    11    1
    20    88    11    1
    21    76    12    1
    22    12   179    1
    23    79    13    1
    24    13   188    1
    25    14    81    1
    26    93    14    1
    27    15    83    1
    28    15    92    1
    29    82    16    1
    30    16   189    1
    31    17    86    1
    32   100    17    1
    33    18    88    1
    34    18    98    1
    35    87    19    1
    36    19   198    1
    37    89    20    1
    38    20   207    1
    39    21    93    1
    40    21   103    1
    41    91    22    1
    42    22   209    1
    43    94    23    1
    44    23   210    1
    45    96    24    1
    46    24   214    1
    47    25   100    1
    48    25   109    1
    49    97    26    1
    50    26   215    1
    51    99    27    1
    52    27   220    1
    53   101    28    1
    54   112    28    1
    55   102    29    1
    56    29   226    1
    57   104    30    1
    58    30   227    1
    59   105    31    1
    60    31   228    1
    61   106    32    1
    62    32   235    1
    63    33   110    1
    64    33   236    1
    65   111    34    1
    66    34   238    1
    67    35   112    1
    68    35   117    1
    69   115    36    1
    70    36   242    1
    71   116    37    1
    72    37   245    1
    73   118    38    1
    74    38   246    1
    75    39   119    1
    76    39   247    1
    77    40    41    1
    78    40    43    1
    79    40    45    1
    80    40    55    1
    81    41    42    1
    82    41    50    1
    83    41   120    1
    84    42    44    1
    85    42    52    1
    86    42    58    1
    87    43    46    1
    88    43    51    1
    89    43    60    1
    90    44    47    1
    91    44    48    1
    92    44   121    1
    93    45    47    1
    94    45   122    1
    95    45   123    1
    96    46    49    1
    97    46    57    2
    98    47   124    1
    99    47   125    1
   100    48    56    1
   101    48    65    1
   102    48    66    1
   103    49    53    1
   104    49    61    1
   105    49   126    1
   106    50    57    1
   107    50   127    1
   108    50   128    1
   109    51    54    1
   110    51   129    1
   111    51   130    1
   112    52    59    1
   113    52   131    1
   114    52   132    1
   115    53    54    1
   116    53    62    1
   117    53    67    1
   118    54   133    1
   119    55   134    1
   120    55   135    1
   121    55   136    1
   122    56    59    1
   123    56   137    1
   124    57   138    1
   125    58   139    1
   126    58   140    1
   127    58   141    1
   128    59   142    1
   129    59   143    1
   130    60   144    1
   131    60   145    1
   132    60   146    1
   133    61    63    1
   134    61   147    1
   135    61   148    1
   136    62    64    1
   137    62   149    1
   138    62   150    1
   139    63    64    1
   140    63    68    1
   141    63    69    1
   142    64   151    1
   143    65   153    1
   144    65   154    1
   145    65   155    1
   146    66   152    1
   147    66   156    1
   148    66   157    1
   149    68   159    1
   150    68   160    1
   151    68   161    1
   152    69   162    1
   153    69   163    1
   154    69   164    1
   155    70    71    1
   156    70   165    1
   157    71    74    1
   158    71   166    1
   159    72    77    1
   160    72   167    1
   161    73    78    1
   162    74    76    1
   163    74   168    1
   164    75    76    1
   165    75    81    1
   166    75   169    1
   167    76   170    1
   168    77    79    1
   169    77   171    1
   170    78    84    1
   171    78    85    2
   172    79    82    1
   173    79   172    1
   174    80    82    1
   175    80    86    1
   176    80   173    1
   177    81   174    1
   178    81   175    1
   179    82   176    1
   180    83    87    1
   181    83   177    1
   182    84   180    1
   183    84   181    1
   184    84   182    1
   185    85    90    1
   186    85   183    1
   187    86   184    1
   188    86   185    1
   189    87    89    1
   190    87   186    1
   191    88    91    1
   192    88   187    1
   193    89    94    1
   194    89   190    1
   195    90    95    1
   196    90   191    1
   197    90   192    1
   198    91    96    1
   199    91   193    1
   200    92    94    1
   201    92   194    1
   202    92   195    1
   203    93    97    1
   204    93   196    1
   205    94   197    1
   206    95   101    1
   207    95   199    1
   208    95   200    1
   209    96    99    1
   210    96   201    1
   211    97   102    1
   212    97   202    1
   213    98    99    1
   214    98   203    1
   215    98   204    1
   216    99   205    1
   217   100   105    1
   218   100   206    1
   219   101   107    1
   220   101   108    1
   221   102   104    1
   222   102   208    1
   223   103   104    1
   224   103   110    1
   225   103   211    1
   226   104   212    1
   227   105   106    1
   228   105   213    1
   229   106   111    1
   230   106   216    1
   231   107   217    1
   232   107   218    1
   233   107   219    1
   234   108   114    2
   235   108   221    1
   236   109   111    1
   237   109   113    1
   238   109   222    1
   239   110   223    1
   240   110   224    1
   241   111   225    1
   242   112   115    1
   243   112   229    1
   244   113   230    1
   245   113   231    1
   246   113   232    1
   247   114   233    1
   248   114   234    1
   249   115   116    1
   250   115   237    1
   251   116   118    1
   252   116   239    1
   253   117   118    1
   254   117   119    1
   255   117   240    1
   256   118   241    1
   257   119   243    1
   258   119   244    1
