@<TRIPOS>MOLECULE
IMPHY000317
 73 78 0 0 0
SMALL
GASTEIGER

@<TRIPOS>ATOM
      1 O           5.5954   -2.5456    0.0000 O.3     1  UNL1       -0.3448
      2 O           3.9300   -1.4644    0.0000 O.3     1  UNL1       -0.3480
      3 O          11.0589   -0.8349    0.0000 O.2     1  UNL1       -0.2971
      4 O          12.0027    2.8336    0.0000 O.3     1  UNL1       -0.3918
      5 C           6.6628   -0.3108    0.0000 C.3     1  UNL1       -0.0233
      6 C           7.5288   -0.8108    0.0000 C.3     1  UNL1       -0.0295
      7 C           5.9258   -0.9778    0.0000 C.3     1  UNL1       -0.0015
      8 C           8.3948   -0.3108    0.0000 C.3     1  UNL1       -0.0276
      9 C           8.3948    0.6892    0.0000 C.3     1  UNL1       -0.0315
     10 C           6.3309   -1.8856    0.0000 C.3     1  UNL1        0.0660
     11 C           7.3196   -1.7826    0.0000 C.3     1  UNL1       -0.0226
     12 C           6.6628    0.6892    0.0000 C.3     1  UNL1       -0.0467
     13 C           9.2888    1.2239    0.0000 C.3     1  UNL1       -0.0193
     14 C           4.9434   -1.0845    0.0000 C.3     1  UNL1        0.0160
     15 C           7.5288    1.1892    0.0000 C.3     1  UNL1       -0.0489
     16 C           4.7396   -2.0515    0.0000 C.3     1  UNL1        0.1732
     17 C          10.1949    0.7101    0.0000 C.3     1  UNL1        0.0255
     18 C           9.2888   -0.8454    0.0000 C.3     1  UNL1        0.0095
     19 C           5.7968    0.1892    0.0000 C.3     1  UNL1       -0.0590
     20 C           9.2637    2.3086    0.0000 C.3     1  UNL1       -0.0444
     21 C          10.1949   -0.3316    0.0000 C.2     1  UNL1        0.1373
     22 C           8.4189    1.7172    0.0000 C.3     1  UNL1       -0.0587
     23 C          11.1386    1.2453    0.0000 C.3     1  UNL1       -0.0168
     24 C           4.2723   -0.3431    0.0000 C.3     1  UNL1       -0.0572
     25 C           4.6359   -3.0461    0.0000 C.3     1  UNL1        0.0020
     26 C          10.1949    2.8655    0.0000 C.3     1  UNL1       -0.0263
     27 C          11.1386    2.3303    0.0000 C.3     1  UNL1        0.0559
     28 C           3.7227   -3.4536    0.0000 C.3     1  UNL1       -0.0435
     29 C           3.0169   -1.8719    0.0000 C.3     1  UNL1        0.0535
     30 C           2.9132   -2.8665    0.0000 C.3     1  UNL1       -0.0201
     31 C           2.0000   -3.2741    0.0000 C.3     1  UNL1       -0.0603
     32 H           8.2158   -1.3113    0.0000 H       1  UNL1        0.0310
     33 H           5.5777   -0.2024    0.0000 H       1  UNL1        0.0335
     34 H           8.3883   -1.1607    0.0000 H       1  UNL1        0.0310
     35 H           9.1342    0.2699    0.0000 H       1  UNL1        0.0309
     36 H           6.6756   -2.6626    0.0000 H       1  UNL1        0.0600
     37 H           7.3187   -2.4026    0.0000 H       1  UNL1        0.0293
     38 H           7.9361   -1.8486    0.0000 H       1  UNL1        0.0293
     39 H           6.4507    1.2719    0.0000 H       1  UNL1        0.0271
     40 H           6.0522    0.5816    0.0000 H       1  UNL1        0.0271
     41 H           4.3448   -1.2463    0.0000 H       1  UNL1        0.0354
     42 H           7.9274    1.6642    0.0000 H       1  UNL1        0.0268
     43 H           7.1303    1.6642    0.0000 H       1  UNL1        0.0268
     44 H          10.9293    0.2822    0.0000 H       1  UNL1        0.0384
     45 H           8.8842   -1.3152    0.0000 H       1  UNL1        0.0345
     46 H           9.6824   -1.3244    0.0000 H       1  UNL1        0.0345
     47 H           6.1068    0.7262    0.0000 H       1  UNL1        0.0235
     48 H           5.2598    0.4992    0.0000 H       1  UNL1        0.0235
     49 H           5.4868   -0.3477    0.0000 H       1  UNL1        0.0235
     50 H           9.0412    2.8873    0.0000 H       1  UNL1        0.0272
     51 H           8.6555    2.1884    0.0000 H       1  UNL1        0.0272
     52 H           8.7248    2.2565    0.0000 H       1  UNL1        0.0235
     53 H           7.8796    2.0231    0.0000 H       1  UNL1        0.0235
     54 H           8.1131    1.1779    0.0000 H       1  UNL1        0.0235
     55 H          11.3477    0.6616    0.0000 H       1  UNL1        0.0297
     56 H          11.7495    1.3514    0.0000 H       1  UNL1        0.0297
     57 H           4.7320    0.0729    0.0000 H       1  UNL1        0.0234
     58 H           3.8562    0.1165    0.0000 H       1  UNL1        0.0234
     59 H           3.8126   -0.7592    0.0000 H       1  UNL1        0.0234
     60 H           4.7864   -3.6476    0.0000 H       1  UNL1        0.0317
     61 H           5.2544   -3.0023    0.0000 H       1  UNL1        0.0317
     62 H          10.5885    3.3446    0.0000 H       1  UNL1        0.0290
     63 H           9.7903    3.3353    0.0000 H       1  UNL1        0.0290
     64 H          11.1351    2.9503    0.0000 H       1  UNL1        0.0593
     65 H           3.2771   -3.8847    0.0000 H       1  UNL1        0.0270
     66 H           4.0699   -3.9673    0.0000 H       1  UNL1        0.0270
     67 H           2.8664   -1.2705    0.0000 H       1  UNL1        0.0563
     68 H           2.3984   -1.9157    0.0000 H       1  UNL1        0.0563
     69 H           2.4113   -2.5026    0.0000 H       1  UNL1        0.0320
     70 H          12.0003    3.4536    0.0000 H       1  UNL1        0.2098
     71 H           1.7473   -2.7079    0.0000 H       1  UNL1        0.0233
     72 H           1.4338   -3.5267    0.0000 H       1  UNL1        0.0233
     73 H           2.2527   -3.8402    0.0000 H       1  UNL1        0.0233
@<TRIPOS>BOND
     1     1    10    1
     2    16     1    1
     3     2    16    1
     4     2    29    1
     5     3    21    2
     6    27     4    1
     7     4    70    1
     8     5     6    1
     9     5     7    1
    10     5    12    1
    11     5    19    1
    12     6     8    1
    13     6    11    1
    14     6    32    1
    15     7    10    1
    16     7    14    1
    17     7    33    1
    18     8     9    1
    19     8    18    1
    20     8    34    1
    21     9    13    1
    22     9    15    1
    23     9    35    1
    24    10    11    1
    25    10    36    1
    26    11    37    1
    27    11    38    1
    28    12    15    1
    29    12    39    1
    30    12    40    1
    31    13    17    1
    32    13    20    1
    33    13    22    1
    34    14    16    1
    35    14    24    1
    36    14    41    1
    37    15    42    1
    38    15    43    1
    39    16    25    1
    40    17    21    1
    41    17    23    1
    42    17    44    1
    43    18    21    1
    44    18    45    1
    45    18    46    1
    46    19    47    1
    47    19    48    1
    48    19    49    1
    49    20    26    1
    50    20    50    1
    51    20    51    1
    52    22    52    1
    53    22    53    1
    54    22    54    1
    55    23    27    1
    56    23    55    1
    57    23    56    1
    58    24    57    1
    59    24    58    1
    60    24    59    1
    61    25    28    1
    62    25    60    1
    63    25    61    1
    64    26    27    1
    65    26    62    1
    66    26    63    1
    67    27    64    1
    68    28    30    1
    69    28    65    1
    70    28    66    1
    71    29    30    1
    72    29    67    1
    73    29    68    1
    74    30    31    1
    75    30    69    1
    76    31    71    1
    77    31    72    1
    78    31    73    1
