@<TRIPOS>MOLECULE
IMPHY009662
 158 166 0 0 0
SMALL
GASTEIGER

@<TRIPOS>ATOM
      1 O          17.3163    3.9787    0.0000 O.3     1  UNL1       -0.3450
      2 O          17.6186    5.9188    0.0000 O.3     1  UNL1       -0.3642
      3 O           9.4651    1.0891    0.0000 O.3     1  UNL1       -0.3451
      4 O           7.7331    1.0891    0.0000 O.3     1  UNL1       -0.3405
      5 O          21.3176    3.2468    0.0000 O.3     1  UNL1       -0.3484
      6 O           9.4651    3.0891    0.0000 O.3     1  UNL1       -0.3841
      7 O           7.7331    4.0891    0.0000 O.3     1  UNL1       -0.3864
      8 O           6.0010    3.0891    0.0000 O.3     1  UNL1       -0.3865
      9 O          22.8202    2.3853    0.0000 O.3     1  UNL1       -0.3405
     10 O           6.0010    0.0891    0.0000 O.3     1  UNL1       -0.3460
     11 O          20.3228    1.5118    0.0000 O.3     1  UNL1       -0.3841
     12 O          21.3280   -0.2173    0.0000 O.3     1  UNL1       -0.3864
     13 O          23.3280   -0.2113    0.0000 O.3     1  UNL1       -0.3865
     14 O           4.2690    0.0891    0.0000 O.3     1  UNL1       -0.3405
     15 O          24.8202    2.3912    0.0000 O.3     1  UNL1       -0.3924
     16 O           6.0010   -1.9109    0.0000 O.3     1  UNL1       -0.3378
     17 O           4.2690   -2.9109    0.0000 O.3     1  UNL1       -0.3864
     18 O           2.5369   -1.9109    0.0000 O.3     1  UNL1       -0.3865
     19 O           5.1350   -3.4109    0.0000 O.3     1  UNL1       -0.3431
     20 O           2.5369    1.0891    0.0000 O.3     1  UNL1       -0.3924
     21 O           7.7331   -2.9109    0.0000 O.3     1  UNL1       -0.3841
     22 O           7.7331   -4.9109    0.0000 O.3     1  UNL1       -0.3864
     23 O           6.0010   -5.9109    0.0000 O.3     1  UNL1       -0.3866
     24 C          14.8464    4.1622    0.0000 C.3     1  UNL1       -0.0233
     25 C          14.8503    3.1622    0.0000 C.3     1  UNL1       -0.0295
     26 C          15.7915    4.4706    0.0000 C.3     1  UNL1       -0.0015
     27 C          13.9862    2.6588    0.0000 C.3     1  UNL1       -0.0306
     28 C          16.3782    3.6681    0.0000 C.3     1  UNL1        0.0660
     29 C          13.1182    3.1555    0.0000 C.3     1  UNL1       -0.0285
     30 C          15.7977    2.8611    0.0000 C.3     1  UNL1       -0.0226
     31 C          13.9785    4.6588    0.0000 C.3     1  UNL1       -0.0467
     32 C          16.3720    5.2702    0.0000 C.3     1  UNL1        0.0158
     33 C          13.1144    4.1555    0.0000 C.3     1  UNL1       -0.0486
     34 C          12.2102    2.6452    0.0000 C.3     1  UNL1       -0.0078
     35 C          17.3125    4.9669    0.0000 C.3     1  UNL1        0.1704
     36 C          14.8426    5.1622    0.0000 C.3     1  UNL1       -0.0590
     37 C          14.0063    1.6174    0.0000 C.3     1  UNL1       -0.0311
     38 C          12.2062    1.6035    0.0000 C.2     1  UNL1       -0.0648
     39 C          11.2812    3.2057    0.0000 C.3     1  UNL1       -0.0413
     40 C          13.1103    1.0862    0.0000 C.2     1  UNL1       -0.0839
     41 C          16.0618    6.2209    0.0000 C.3     1  UNL1       -0.0572
     42 C          12.2140    3.6452    0.0000 C.3     1  UNL1       -0.0556
     43 C          18.3125    4.9699    0.0000 C.3     1  UNL1        0.0018
     44 C          11.2729    1.0502    0.0000 C.3     1  UNL1       -0.0047
     45 C          10.3353    2.6741    0.0000 C.3     1  UNL1       -0.0254
     46 C          10.3312    1.5891    0.0000 C.3     1  UNL1        0.0655
     47 C          18.8150    4.1053    0.0000 C.3     1  UNL1       -0.0435
     48 C          19.8150    4.1083    0.0000 C.3     1  UNL1       -0.0201
     49 C           8.5991    1.5891    0.0000 C.3     1  UNL1        0.1882
     50 C          20.3176    3.2438    0.0000 C.3     1  UNL1        0.0533
     51 C          20.3124    4.9758    0.0000 C.3     1  UNL1       -0.0603
     52 C           8.5991    2.5891    0.0000 C.3     1  UNL1        0.1341
     53 C           7.7331    3.0891    0.0000 C.3     1  UNL1        0.1141
     54 C           6.8671    1.5891    0.0000 C.3     1  UNL1        0.1134
     55 C           6.8671    2.5891    0.0000 C.3     1  UNL1        0.1119
     56 C          21.8202    2.3823    0.0000 C.3     1  UNL1        0.1879
     57 C           6.0010    1.0891    0.0000 C.3     1  UNL1        0.0796
     58 C          21.3228    1.5148    0.0000 C.3     1  UNL1        0.1341
     59 C          21.8254    0.6502    0.0000 C.3     1  UNL1        0.1141
     60 C          23.3228    1.5207    0.0000 C.3     1  UNL1        0.1130
     61 C          22.8254    0.6532    0.0000 C.3     1  UNL1        0.1119
     62 C           5.1350   -0.4109    0.0000 C.3     1  UNL1        0.1884
     63 C          24.3228    1.5237    0.0000 C.3     1  UNL1        0.0730
     64 C           5.1350   -1.4109    0.0000 C.3     1  UNL1        0.1406
     65 C           4.2690   -1.9109    0.0000 C.3     1  UNL1        0.1144
     66 C           3.4030   -0.4109    0.0000 C.3     1  UNL1        0.1130
     67 C           3.4030   -1.4109    0.0000 C.3     1  UNL1        0.1119
     68 C           2.5369    0.0891    0.0000 C.3     1  UNL1        0.0730
     69 C           6.0010   -2.9109    0.0000 C.3     1  UNL1        0.1884
     70 C           6.8671   -3.4109    0.0000 C.3     1  UNL1        0.1341
     71 C           6.8671   -4.4109    0.0000 C.3     1  UNL1        0.1140
     72 C           5.1350   -4.4109    0.0000 C.3     1  UNL1        0.0873
     73 C           6.0010   -4.9109    0.0000 C.3     1  UNL1        0.1095
     74 C           4.2690   -4.9109    0.0000 C.3     1  UNL1       -0.0361
     75 H          14.9183    2.5459    0.0000 H       1  UNL1        0.0310
     76 H          15.4266    4.9718    0.0000 H       1  UNL1        0.0335
     77 H          14.5267    2.3551    0.0000 H       1  UNL1        0.0310
     78 H          16.7452    3.1684    0.0000 H       1  UNL1        0.0600
     79 H          13.6540    3.4676    0.0000 H       1  UNL1        0.0312
     80 H          15.5488    2.2932    0.0000 H       1  UNL1        0.0293
     81 H          16.3362    2.5540    0.0000 H       1  UNL1        0.0293
     82 H          14.3752    5.1353    0.0000 H       1  UNL1        0.0271
     83 H          13.5781    5.1322    0.0000 H       1  UNL1        0.0271
     84 H          15.7595    5.3667    0.0000 H       1  UNL1        0.0354
     85 H          12.9001    4.7373    0.0000 H       1  UNL1        0.0268
     86 H          12.5042    4.0455    0.0000 H       1  UNL1        0.0268
     87 H          15.4626    5.1646    0.0000 H       1  UNL1        0.0235
     88 H          14.8402    5.7822    0.0000 H       1  UNL1        0.0235
     89 H          14.2226    5.1598    0.0000 H       1  UNL1        0.0235
     90 H          14.2265    1.0379    0.0000 H       1  UNL1        0.0310
     91 H          14.6150    1.7353    0.0000 H       1  UNL1        0.0310
     92 H          11.6876    3.6739    0.0000 H       1  UNL1        0.0274
     93 H          10.8894    3.6862    0.0000 H       1  UNL1        0.0274
     94 H          13.1150    0.4662    0.0000 H       1  UNL1        0.0572
     95 H          16.6512    6.4132    0.0000 H       1  UNL1        0.0234
     96 H          15.8694    6.8103    0.0000 H       1  UNL1        0.0234
     97 H          15.4724    6.0286    0.0000 H       1  UNL1        0.0234
     98 H          12.8340    3.6428    0.0000 H       1  UNL1        0.0238
     99 H          12.2164    4.2652    0.0000 H       1  UNL1        0.0238
    100 H          11.5941    3.6475    0.0000 H       1  UNL1        0.0238
    101 H          18.8944    5.1837    0.0000 H       1  UNL1        0.0317
    102 H          18.2030    5.5801    0.0000 H       1  UNL1        0.0317
    103 H          10.8774    0.5727    0.0000 H       1  UNL1        0.0335
    104 H          11.6757    0.5789    0.0000 H       1  UNL1        0.0335
    105 H          10.1285    3.2586    0.0000 H       1  UNL1        0.0290
    106 H           9.7241    2.5703    0.0000 H       1  UNL1        0.0290
    107 H           9.7948    1.9001    0.0000 H       1  UNL1        0.0600
    108 H          18.2247    6.0496    0.0000 H       1  UNL1        0.2128
    109 H          18.2331    3.8916    0.0000 H       1  UNL1        0.0270
    110 H          18.9245    3.4951    0.0000 H       1  UNL1        0.0270
    111 H          19.5034    4.6443    0.0000 H       1  UNL1        0.0320
    112 H           8.5991    0.9691    0.0000 H       1  UNL1        0.0937
    113 H          19.7357    3.0300    0.0000 H       1  UNL1        0.0563
    114 H          20.4271    2.6336    0.0000 H       1  UNL1        0.0563
    115 H          20.8503    4.6674    0.0000 H       1  UNL1        0.0233
    116 H          20.6208    5.5137    0.0000 H       1  UNL1        0.0233
    117 H          19.7746    5.2842    0.0000 H       1  UNL1        0.0233
    118 H           8.5991    3.2091    0.0000 H       1  UNL1        0.0671
    119 H           7.1962    3.3991    0.0000 H       1  UNL1        0.0648
    120 H           6.8671    0.9691    0.0000 H       1  UNL1        0.0647
    121 H           6.3301    2.2791    0.0000 H       1  UNL1        0.0647
    122 H           9.4651    3.7091    0.0000 H       1  UNL1        0.2101
    123 H          21.2002    2.3804    0.0000 H       1  UNL1        0.0937
    124 H           5.7890    1.6717    0.0000 H       1  UNL1        0.0587
    125 H           5.3905    0.9814    0.0000 H       1  UNL1        0.0587
    126 H           7.1962    4.3991    0.0000 H       1  UNL1        0.2100
    127 H          21.0144    0.9769    0.0000 H       1  UNL1        0.0671
    128 H           6.0010    3.7091    0.0000 H       1  UNL1        0.2100
    129 H          21.2054    0.6484    0.0000 H       1  UNL1        0.0648
    130 H          23.6312    2.0586    0.0000 H       1  UNL1        0.0647
    131 H          22.5170    0.1154    0.0000 H       1  UNL1        0.0647
    132 H          20.0144    0.9739    0.0000 H       1  UNL1        0.2101
    133 H           5.1350    0.2091    0.0000 H       1  UNL1        0.0938
    134 H          24.2169    0.9128    0.0000 H       1  UNL1        0.0584
    135 H          24.9060    1.3134    0.0000 H       1  UNL1        0.0584
    136 H          21.6396   -0.7533    0.0000 H       1  UNL1        0.2100
    137 H           5.1350   -2.0309    0.0000 H       1  UNL1        0.0675
    138 H          23.9480   -0.2095    0.0000 H       1  UNL1        0.2100
    139 H           3.7320   -2.2209    0.0000 H       1  UNL1        0.0648
    140 H           3.4030    0.2091    0.0000 H       1  UNL1        0.0647
    141 H           3.4030   -2.0309    0.0000 H       1  UNL1        0.0647
    142 H          25.4402    2.3931    0.0000 H       1  UNL1        0.2095
    143 H           1.9264    0.1967    0.0000 H       1  UNL1        0.0584
    144 H           2.3249   -0.4935    0.0000 H       1  UNL1        0.0584
    145 H           6.5380   -2.6009    0.0000 H       1  UNL1        0.0938
    146 H           3.7320   -3.2209    0.0000 H       1  UNL1        0.2100
    147 H           2.0000   -1.6009    0.0000 H       1  UNL1        0.2100
    148 H           7.4040   -3.7209    0.0000 H       1  UNL1        0.0671
    149 H           6.8671   -5.0309    0.0000 H       1  UNL1        0.0648
    150 H           4.5981   -4.1009    0.0000 H       1  UNL1        0.0621
    151 H           6.5380   -5.2209    0.0000 H       1  UNL1        0.0646
    152 H           2.0000    1.3991    0.0000 H       1  UNL1        0.2095
    153 H           8.2700   -3.2209    0.0000 H       1  UNL1        0.2101
    154 H           3.9590   -4.3740    0.0000 H       1  UNL1        0.0255
    155 H           3.7320   -5.2209    0.0000 H       1  UNL1        0.0255
    156 H           4.5790   -5.4478    0.0000 H       1  UNL1        0.0255
    157 H           7.7331   -5.5309    0.0000 H       1  UNL1        0.2100
    158 H           6.5380   -6.2209    0.0000 H       1  UNL1        0.2100
@<TRIPOS>BOND
     1     1    28    1
     2     1    35    1
     3     2    35    1
     4     2   108    1
     5     3    46    1
     6     3    49    1
     7     4    49    1
     8     4    54    1
     9     5    50    1
    10     5    56    1
    11     6    52    1
    12     6   122    1
    13     7    53    1
    14     7   126    1
    15     8    55    1
    16     8   128    1
    17     9    56    1
    18     9    60    1
    19    10    57    1
    20    10    62    1
    21    11    58    1
    22    11   132    1
    23    12    59    1
    24    12   136    1
    25    13    61    1
    26    13   138    1
    27    14    62    1
    28    14    66    1
    29    15    63    1
    30    15   142    1
    31    16    64    1
    32    16    69    1
    33    17    65    1
    34    17   146    1
    35    18    67    1
    36    18   147    1
    37    19    69    1
    38    19    72    1
    39    20    68    1
    40    20   152    1
    41    21    70    1
    42    21   153    1
    43    22    71    1
    44    22   157    1
    45    23    73    1
    46    23   158    1
    47    24    25    1
    48    24    26    1
    49    24    31    1
    50    24    36    1
    51    25    27    1
    52    25    30    1
    53    25    75    1
    54    26    28    1
    55    26    32    1
    56    26    76    1
    57    27    29    1
    58    27    37    1
    59    27    77    1
    60    28    30    1
    61    28    78    1
    62    29    33    1
    63    29    34    1
    64    29    79    1
    65    30    80    1
    66    30    81    1
    67    31    33    1
    68    31    82    1
    69    31    83    1
    70    32    35    1
    71    32    41    1
    72    32    84    1
    73    33    85    1
    74    33    86    1
    75    34    38    1
    76    34    39    1
    77    34    42    1
    78    35    43    1
    79    36    87    1
    80    36    88    1
    81    36    89    1
    82    37    40    1
    83    37    90    1
    84    37    91    1
    85    38    40    2
    86    38    44    1
    87    39    45    1
    88    39    92    1
    89    39    93    1
    90    40    94    1
    91    41    95    1
    92    41    96    1
    93    41    97    1
    94    42    98    1
    95    42    99    1
    96    42   100    1
    97    43    47    1
    98    43   101    1
    99    43   102    1
   100    44    46    1
   101    44   103    1
   102    44   104    1
   103    45    46    1
   104    45   105    1
   105    45   106    1
   106    46   107    1
   107    47    48    1
   108    47   109    1
   109    47   110    1
   110    48    50    1
   111    48    51    1
   112    48   111    1
   113    49    52    1
   114    49   112    1
   115    50   113    1
   116    50   114    1
   117    51   115    1
   118    51   116    1
   119    51   117    1
   120    52    53    1
   121    52   118    1
   122    53    55    1
   123    53   119    1
   124    54    55    1
   125    54    57    1
   126    54   120    1
   127    55   121    1
   128    56    58    1
   129    56   123    1
   130    57   124    1
   131    57   125    1
   132    58    59    1
   133    58   127    1
   134    59    61    1
   135    59   129    1
   136    60    61    1
   137    60    63    1
   138    60   130    1
   139    61   131    1
   140    62    64    1
   141    62   133    1
   142    63   134    1
   143    63   135    1
   144    64    65    1
   145    64   137    1
   146    65    67    1
   147    65   139    1
   148    66    67    1
   149    66    68    1
   150    66   140    1
   151    67   141    1
   152    68   143    1
   153    68   144    1
   154    69    70    1
   155    69   145    1
   156    70    71    1
   157    70   148    1
   158    71    73    1
   159    71   149    1
   160    72    73    1
   161    72    74    1
   162    72   150    1
   163    73   151    1
   164    74   154    1
   165    74   155    1
   166    74   156    1
