@<TRIPOS>MOLECULE
IMPHY003657
 83 87 0 0 0
SMALL
GASTEIGER

@<TRIPOS>ATOM
      1 O           2.5357   -1.9563    0.0000 O.3     1  UNL1       -0.3886
      2 O           2.5519    0.1353    0.0000 O.3     1  UNL1       -0.3892
      3 O           4.3500   -3.7342    0.0000 O.3     1  UNL1       -0.3944
      4 O          11.4608    1.1302    0.0000 O.3     1  UNL1       -0.4802
      5 O          10.6064   -0.3764    0.0000 O.2     1  UNL1       -0.2504
      6 C           7.0628   -0.4039    0.0000 C.3     1  UNL1       -0.0194
      7 C           6.1968    0.0961    0.0000 C.3     1  UNL1       -0.0257
      8 C           5.2868   -0.4108    0.0000 C.3     1  UNL1       -0.0225
      9 C           7.9288    0.0961    0.0000 C.3     1  UNL1       -0.0051
     10 C           5.2787   -1.4524    0.0000 C.3     1  UNL1       -0.0253
     11 C           7.0789   -1.4454    0.0000 C.3     1  UNL1       -0.0463
     12 C           7.9288    1.0961    0.0000 C.2     1  UNL1       -0.0626
     13 C           6.1808   -1.9732    0.0000 C.3     1  UNL1       -0.0485
     14 C           4.3433   -2.0021    0.0000 C.3     1  UNL1        0.0227
     15 C           8.8228    1.6307    0.0000 C.3     1  UNL1       -0.0008
     16 C           6.1968    1.0961    0.0000 C.3     1  UNL1       -0.0306
     17 C           4.3599    0.1533    0.0000 C.3     1  UNL1       -0.0184
     18 C           8.8228   -0.4386    0.0000 C.3     1  UNL1       -0.0424
     19 C           9.7288    1.1169    0.0000 C.3     1  UNL1        0.0743
     20 C           7.7056   -1.1700    0.0000 C.3     1  UNL1       -0.0585
     21 C           9.7288    0.0752    0.0000 C.3     1  UNL1       -0.0359
     22 C           3.4037   -1.4596    0.0000 C.3     1  UNL1        0.0888
     23 C           7.0628    1.5961    0.0000 C.2     1  UNL1       -0.0836
     24 C           3.4120   -0.3747    0.0000 C.3     1  UNL1        0.0822
     25 C           5.2945    0.5892    0.0000 C.3     1  UNL1       -0.0589
     26 C           8.2709   -0.8436    0.0000 C.3     1  UNL1       -0.0553
     27 C           8.7977    2.7154    0.0000 C.3     1  UNL1       -0.0337
     28 C          10.6726    1.6521    0.0000 C.3     1  UNL1       -0.0364
     29 C           9.7288    3.2723    0.0000 C.3     1  UNL1       -0.0407
     30 C           3.8467   -2.8701    0.0000 C.3     1  UNL1        0.0523
     31 C           4.8466   -2.8662    0.0000 C.3     1  UNL1       -0.0547
     32 C          10.6726    2.7371    0.0000 C.3     1  UNL1       -0.0492
     33 C          10.5987    0.6236    0.0000 C.2     1  UNL1        0.3115
     34 C           7.9222    3.1986    0.0000 C.3     1  UNL1       -0.0616
     35 C           9.7173    4.2723    0.0000 C.3     1  UNL1       -0.0622
     36 H           6.9329    0.5211    0.0000 H       1  UNL1        0.0315
     37 H           5.2820   -2.3024    0.0000 H       1  UNL1        0.0313
     38 H           7.2969   -2.0258    0.0000 H       1  UNL1        0.0271
     39 H           7.6880   -1.3300    0.0000 H       1  UNL1        0.0271
     40 H           5.7835   -2.4492    0.0000 H       1  UNL1        0.0268
     41 H           6.5818   -2.4461    0.0000 H       1  UNL1        0.0268
     42 H           8.0786    2.0415    0.0000 H       1  UNL1        0.0359
     43 H           5.9847    1.6787    0.0000 H       1  UNL1        0.0310
     44 H           5.5862    0.9884    0.0000 H       1  UNL1        0.0310
     45 H           4.7681    0.6199    0.0000 H       1  UNL1        0.0296
     46 H           3.9700    0.6353    0.0000 H       1  UNL1        0.0296
     47 H           8.4182   -0.9084    0.0000 H       1  UNL1        0.0274
     48 H           9.2164   -0.9176    0.0000 H       1  UNL1        0.0274
     49 H           7.2306   -1.5685    0.0000 H       1  UNL1        0.0235
     50 H           8.1041   -1.6449    0.0000 H       1  UNL1        0.0235
     51 H           8.1805   -0.7715    0.0000 H       1  UNL1        0.0235
     52 H           9.9379   -0.5084    0.0000 H       1  UNL1        0.0276
     53 H          10.3397    0.1813    0.0000 H       1  UNL1        0.0276
     54 H           3.4025   -2.0796    0.0000 H       1  UNL1        0.0625
     55 H           7.0628    2.2161    0.0000 H       1  UNL1        0.0572
     56 H           2.8722   -0.6795    0.0000 H       1  UNL1        0.0619
     57 H           5.9145    0.5844    0.0000 H       1  UNL1        0.0235
     58 H           5.2993    1.2092    0.0000 H       1  UNL1        0.0235
     59 H           4.6745    0.5940    0.0000 H       1  UNL1        0.0235
     60 H           7.6884   -1.0557    0.0000 H       1  UNL1        0.0238
     61 H           8.4830   -1.4262    0.0000 H       1  UNL1        0.0238
     62 H           8.8535   -0.6315    0.0000 H       1  UNL1        0.0238
     63 H           8.2674    2.3941    0.0000 H       1  UNL1        0.0307
     64 H          10.8817    1.0684    0.0000 H       1  UNL1        0.0276
     65 H          11.2835    1.7582    0.0000 H       1  UNL1        0.0276
     66 H          10.2628    3.5875    0.0000 H       1  UNL1        0.0301
     67 H           3.3702   -2.4734    0.0000 H       1  UNL1        0.0563
     68 H           3.3732   -3.2704    0.0000 H       1  UNL1        0.0563
     69 H           4.3109   -3.1783    0.0000 H       1  UNL1        0.0237
     70 H           5.1587   -3.4019    0.0000 H       1  UNL1        0.0237
     71 H           5.3824   -2.5541    0.0000 H       1  UNL1        0.0237
     72 H          11.2835    2.6310    0.0000 H       1  UNL1        0.0268
     73 H          10.8817    3.3208    0.0000 H       1  UNL1        0.0268
     74 H           8.2218    3.7414    0.0000 H       1  UNL1        0.0233
     75 H           7.3794    3.4982    0.0000 H       1  UNL1        0.0233
     76 H           7.6226    2.6558    0.0000 H       1  UNL1        0.0233
     77 H           2.0000   -1.6442    0.0000 H       1  UNL1        0.2099
     78 H           2.5590    0.7553    0.0000 H       1  UNL1        0.2099
     79 H          10.3372    4.2794    0.0000 H       1  UNL1        0.0233
     80 H           9.7101    4.8922    0.0000 H       1  UNL1        0.0233
     81 H           9.0973    4.2651    0.0000 H       1  UNL1        0.0233
     82 H           4.0421   -4.2723    0.0000 H       1  UNL1        0.2094
     83 H          12.0001    0.8244    0.0000 H       1  UNL1        0.2951
@<TRIPOS>BOND
     1    22     1    1
     2     1    77    1
     3    24     2    1
     4     2    78    1
     5     3    30    1
     6     3    82    1
     7     4    33    1
     8     4    83    1
     9     5    33    2
    10     6     7    1
    11     6     9    1
    12     6    11    1
    13     6    20    1
    14     7     8    1
    15     7    16    1
    16     7    36    1
    17     8    10    1
    18     8    17    1
    19     8    25    1
    20     9    12    1
    21     9    18    1
    22     9    26    1
    23    10    13    1
    24    10    14    1
    25    10    37    1
    26    11    13    1
    27    11    38    1
    28    11    39    1
    29    12    15    1
    30    12    23    2
    31    13    40    1
    32    13    41    1
    33    14    22    1
    34    14    30    1
    35    14    31    1
    36    15    19    1
    37    15    27    1
    38    15    42    1
    39    16    23    1
    40    16    43    1
    41    16    44    1
    42    17    24    1
    43    17    45    1
    44    17    46    1
    45    18    21    1
    46    18    47    1
    47    18    48    1
    48    19    21    1
    49    19    28    1
    50    19    33    1
    51    20    49    1
    52    20    50    1
    53    20    51    1
    54    21    52    1
    55    21    53    1
    56    22    24    1
    57    22    54    1
    58    23    55    1
    59    24    56    1
    60    25    57    1
    61    25    58    1
    62    25    59    1
    63    26    60    1
    64    26    61    1
    65    26    62    1
    66    27    29    1
    67    27    34    1
    68    27    63    1
    69    28    32    1
    70    28    64    1
    71    28    65    1
    72    29    32    1
    73    29    35    1
    74    29    66    1
    75    30    67    1
    76    30    68    1
    77    31    69    1
    78    31    70    1
    79    31    71    1
    80    32    72    1
    81    32    73    1
    82    34    74    1
    83    34    75    1
    84    34    76    1
    85    35    79    1
    86    35    80    1
    87    35    81    1
