@<TRIPOS>MOLECULE
IMPHY015015
 39 40 0 0 0
SMALL
GASTEIGER

@<TRIPOS>ATOM
      1 C           3.7320    0.7500    0.0000 C.3     1  UNL1       -0.0165
      2 C           2.8660   -0.7500    0.0000 C.3     1  UNL1       -0.0170
      3 C           2.8660    1.2500    0.0000 C.3     1  UNL1       -0.0373
      4 C           3.7320   -0.2500    0.0000 C.2     1  UNL1       -0.0626
      5 C           2.0000   -0.2500    0.0000 C.3     1  UNL1       -0.0460
      6 C           2.0000    0.7500    0.0000 C.3     1  UNL1       -0.0494
      7 C           4.6260    1.2847    0.0000 C.3     1  UNL1       -0.0423
      8 C           2.8660   -1.7500    0.0000 C.3     1  UNL1       -0.0402
      9 C           5.5321    0.7708    0.0000 C.3     1  UNL1       -0.0277
     10 C           4.6260   -0.7847    0.0000 C.2     1  UNL1       -0.0593
     11 C           2.8660    2.2500    0.0000 C.3     1  UNL1       -0.0619
     12 C           5.5321   -0.2708    0.0000 C.2     1  UNL1       -0.0544
     13 C           2.0000   -2.2500    0.0000 C.3     1  UNL1       -0.0621
     14 C           3.7320   -2.2500    0.0000 C.3     1  UNL1       -0.0621
     15 C           6.3961   -0.7742    0.0000 C.2     1  UNL1       -0.0955
     16 H           4.2714    0.4441    0.0000 H       1  UNL1        0.0348
     17 H           2.3291   -1.0600    0.0000 H       1  UNL1        0.0348
     18 H           3.4030    1.5600    0.0000 H       1  UNL1        0.0304
     19 H           1.3894   -0.1423    0.0000 H       1  UNL1        0.0271
     20 H           1.7880   -0.8326    0.0000 H       1  UNL1        0.0271
     21 H           1.7880    1.3326    0.0000 H       1  UNL1        0.0268
     22 H           1.3894    0.6423    0.0000 H       1  UNL1        0.0268
     23 H           5.0196    1.7637    0.0000 H       1  UNL1        0.0274
     24 H           4.2214    1.7544    0.0000 H       1  UNL1        0.0274
     25 H           2.8660   -2.3700    0.0000 H       1  UNL1        0.0301
     26 H           6.1429    0.6647    0.0000 H       1  UNL1        0.0313
     27 H           5.7411    1.3545    0.0000 H       1  UNL1        0.0313
     28 H           4.6188   -1.4046    0.0000 H       1  UNL1        0.0620
     29 H           3.4860    2.2500    0.0000 H       1  UNL1        0.0233
     30 H           2.8660    2.8700    0.0000 H       1  UNL1        0.0233
     31 H           2.2460    2.2500    0.0000 H       1  UNL1        0.0233
     32 H           1.6900   -1.7131    0.0000 H       1  UNL1        0.0233
     33 H           1.4631   -2.5600    0.0000 H       1  UNL1        0.0233
     34 H           2.3100   -2.7869    0.0000 H       1  UNL1        0.0233
     35 H           3.4220   -2.7869    0.0000 H       1  UNL1        0.0233
     36 H           4.2690   -2.5600    0.0000 H       1  UNL1        0.0233
     37 H           4.0420   -1.7131    0.0000 H       1  UNL1        0.0233
     38 H           6.3938   -1.3942    0.0000 H       1  UNL1        0.0537
     39 H           6.9343   -0.4662    0.0000 H       1  UNL1        0.0537
@<TRIPOS>BOND
     1     1     3    1
     2     1     4    1
     3     1     7    1
     4     1    16    1
     5     2     4    1
     6     2     5    1
     7     2     8    1
     8     2    17    1
     9     3     6    1
    10     3    11    1
    11     3    18    1
    12     4    10    2
    13     5     6    1
    14     5    19    1
    15     5    20    1
    16     6    21    1
    17     6    22    1
    18     7     9    1
    19     7    23    1
    20     7    24    1
    21     8    13    1
    22     8    14    1
    23     8    25    1
    24     9    12    1
    25     9    26    1
    26     9    27    1
    27    10    12    1
    28    10    28    1
    29    11    29    1
    30    11    30    1
    31    11    31    1
    32    12    15    2
    33    13    32    1
    34    13    33    1
    35    13    34    1
    36    14    35    1
    37    14    36    1
    38    14    37    1
    39    15    38    1
    40    15    39    1
