@<TRIPOS>MOLECULE
IMPHY003195
 20 22 0 0 0
SMALL
GASTEIGER

@<TRIPOS>ATOM
      1 O           2.5836    0.0201    0.0000 O.2     1  UNL1       -0.4622
      2 O           6.1719    0.2222    0.0000 O.2     1  UNL1       -0.4220
      3 O           7.0479    1.7605    0.0000 O.2     1  UNL1       -0.2452
      4 C           4.3958    0.2154    0.0000 C.ar    1  UNL1        0.0604
      5 C           3.5298   -0.2846    0.0000 C.ar    1  UNL1        0.1454
      6 C           3.5298   -1.2846    0.0000 C.ar    1  UNL1        0.0209
      7 C           5.2619   -0.2846    0.0000 C.ar    1  UNL1        0.1426
      8 C           4.3958   -1.7846    0.0000 C.ar    1  UNL1       -0.0475
      9 C           5.2619   -1.2846    0.0000 C.ar    1  UNL1       -0.0178
     10 C           4.3798    1.2569    0.0000 C.ar    1  UNL1       -0.0408
     11 C           2.5836   -1.5894    0.0000 C.ar    1  UNL1       -0.0161
     12 C           2.0000   -0.7846    0.0000 C.ar    1  UNL1        0.0932
     13 C           5.2778    1.7846    0.0000 C.ar    1  UNL1        0.0237
     14 C           6.1799    1.2638    0.0000 C.ar    1  UNL1        0.3372
     15 H           4.3958   -2.4046    0.0000 H       1  UNL1        0.0626
     16 H           5.7988   -1.5946    0.0000 H       1  UNL1        0.0655
     17 H           3.8393    1.5607    0.0000 H       1  UNL1        0.0628
     18 H           2.3910   -2.1787    0.0000 H       1  UNL1        0.0655
     19 H           1.3800   -0.7846    0.0000 H       1  UNL1        0.1030
     20 H           5.2754    2.4046    0.0000 H       1  UNL1        0.0689
@<TRIPOS>BOND
     1     1     5   ar
     2     1    12   ar
     3     2     7   ar
     4     2    14   ar
     5     3    14    2
     6     4     5   ar
     7     4     7   ar
     8     4    10   ar
     9     5     6   ar
    10     6     8   ar
    11     6    11   ar
    12     7     9   ar
    13     8     9   ar
    14     8    15    1
    15     9    16    1
    16    10    13   ar
    17    10    17    1
    18    11    12   ar
    19    11    18    1
    20    12    19    1
    21    13    14   ar
    22    13    20    1
