@<TRIPOS>MOLECULE
IMPHY009899
 71 76 0 0 0
SMALL
GASTEIGER

@<TRIPOS>ATOM
      1 O           8.2565   -0.7026    0.0000 O.3     1  UNL1       -0.3851
      2 O           6.7390   -1.8714    0.0000 O.3     1  UNL1       -0.3790
      3 O           4.9163    1.8904    0.0000 O.3     1  UNL1       -0.3912
      4 O           8.6331    1.4645    0.0000 O.3     1  UNL1       -0.3910
      5 O           9.0456   -0.2613    0.0000 O.3     1  UNL1       -0.3863
      6 O           9.0340    2.3483    0.0000 O.3     1  UNL1       -0.3768
      7 O           4.0503   -2.3448    0.0000 O.3     1  UNL1       -0.3824
      8 N           3.7210    0.0613    0.0000 N.3     1  UNL1       -0.2980
      9 C           5.6676    0.4566    0.0000 C.3     1  UNL1        0.0217
     10 C           5.6676   -0.4110    0.0000 C.3     1  UNL1        0.0043
     11 C           6.3459    0.9975    0.0000 C.3     1  UNL1       -0.0229
     12 C           4.6656    0.3505    0.0000 C.3     1  UNL1        0.0269
     13 C           7.1918   -0.7589    0.0000 C.3     1  UNL1        0.0334
     14 C           7.1918    0.8044    0.0000 C.3     1  UNL1        0.0206
     15 C           7.5682    0.0228    0.0000 C.3     1  UNL1        0.1062
     16 C           6.3459   -0.9519    0.0000 C.3     1  UNL1        0.0694
     17 C           4.9163   -0.8448    0.0000 C.3     1  UNL1        0.0127
     18 C           4.9163    0.8904    0.0000 C.3     1  UNL1        0.0629
     19 C           6.2682    1.8616    0.0000 C.3     1  UNL1       -0.0415
     20 C           7.0659    2.2026    0.0000 C.3     1  UNL1        0.0144
     21 C           7.6367    1.5492    0.0000 C.3     1  UNL1        0.0663
     22 C           8.2131    0.2927    0.0000 C.3     1  UNL1        0.1109
     23 C           3.7210   -0.6906    0.0000 C.3     1  UNL1        0.0073
     24 C           4.1649   -0.4110    0.0000 C.3     1  UNL1       -0.0414
     25 C           8.2131    1.7772    0.0000 C.3     1  UNL1        0.0920
     26 C           4.1649    0.4566    0.0000 C.3     1  UNL1       -0.0256
     27 C           4.9163   -1.8448    0.0000 C.3     1  UNL1        0.0544
     28 C           2.9170    0.6560    0.0000 C.3     1  UNL1       -0.0036
     29 C           6.1391   -2.6716    0.0000 C.3     1  UNL1        0.0368
     30 C           2.0000    0.2571    0.0000 C.3     1  UNL1       -0.0523
     31 C           8.9498    3.3448    0.0000 C.3     1  UNL1        0.0369
     32 C           4.0503   -3.3448    0.0000 C.3     1  UNL1        0.0365
     33 H           5.6041   -1.2586    0.0000 H       1  UNL1        0.0339
     34 H           5.5643    1.3316    0.0000 H       1  UNL1        0.0312
     35 H           4.5417    0.9580    0.0000 H       1  UNL1        0.0473
     36 H           7.5783   -1.2436    0.0000 H       1  UNL1        0.0370
     37 H           8.0409    0.7663    0.0000 H       1  UNL1        0.0357
     38 H           6.1455   -1.5386    0.0000 H       1  UNL1        0.0603
     39 H           5.4532    1.2004    0.0000 H       1  UNL1        0.0599
     40 H           6.0854    2.4540    0.0000 H       1  UNL1        0.0273
     41 H           5.6598    1.7418    0.0000 H       1  UNL1        0.0273
     42 H           7.0452    3.0523    0.0000 H       1  UNL1        0.0352
     43 H           7.9168    2.1023    0.0000 H       1  UNL1        0.0600
     44 H           8.7596    0.5855    0.0000 H       1  UNL1        0.0648
     45 H           3.1015   -0.6640    0.0000 H       1  UNL1        0.0433
     46 H           3.6680   -1.3083    0.0000 H       1  UNL1        0.0433
     47 H           3.5544   -0.3033    0.0000 H       1  UNL1        0.0273
     48 H           3.9529   -0.9936    0.0000 H       1  UNL1        0.0273
     49 H           8.1349    2.3923    0.0000 H       1  UNL1        0.0626
     50 H           3.9529    1.0392    0.0000 H       1  UNL1        0.0290
     51 H           3.5544    0.3489    0.0000 H       1  UNL1        0.0290
     52 H           5.1283   -2.4274    0.0000 H       1  UNL1        0.0566
     53 H           5.5269   -1.7371    0.0000 H       1  UNL1        0.0566
     54 H           8.0804   -1.2971    0.0000 H       1  UNL1        0.2103
     55 H           3.3666    1.0829    0.0000 H       1  UNL1        0.0424
     56 H           2.5747    1.1730    0.0000 H       1  UNL1        0.0424
     57 H           4.3793    2.2004    0.0000 H       1  UNL1        0.2098
     58 H           8.8966    0.9033    0.0000 H       1  UNL1        0.2098
     59 H           9.6011    0.0139    0.0000 H       1  UNL1        0.2100
     60 H           5.6430   -2.2997    0.0000 H       1  UNL1        0.0524
     61 H           5.7672   -3.1677    0.0000 H       1  UNL1        0.0524
     62 H           6.6352   -3.0435    0.0000 H       1  UNL1        0.0524
     63 H           1.7527    0.8256    0.0000 H       1  UNL1        0.0242
     64 H           1.4315    0.0098    0.0000 H       1  UNL1        0.0242
     65 H           2.2473   -0.3114    0.0000 H       1  UNL1        0.0242
     66 H           9.5676    3.3970    0.0000 H       1  UNL1        0.0524
     67 H           8.8976    3.9626    0.0000 H       1  UNL1        0.0524
     68 H           8.3320    3.2926    0.0000 H       1  UNL1        0.0524
     69 H           3.4303   -3.3448    0.0000 H       1  UNL1        0.0523
     70 H           4.0503   -3.9648    0.0000 H       1  UNL1        0.0523
     71 H           4.6703   -3.3448    0.0000 H       1  UNL1        0.0523
@<TRIPOS>BOND
     1    15     1    1
     2     1    54    1
     3     2    16    1
     4     2    29    1
     5     3    18    1
     6     3    57    1
     7    21     4    1
     8     4    58    1
     9    22     5    1
    10     5    59    1
    11    25     6    1
    12     6    31    1
    13     7    27    1
    14     7    32    1
    15     8    12    1
    16     8    23    1
    17     8    28    1
    18     9    10    1
    19     9    11    1
    20     9    12    1
    21     9    18    1
    22    10    16    1
    23    10    17    1
    24    10    33    1
    25    11    14    1
    26    11    19    1
    27    11    34    1
    28    12    13    1
    29    12    35    1
    30    13    15    1
    31    13    16    1
    32    13    36    1
    33    14    15    1
    34    14    21    1
    35    14    37    1
    36    15    22    1
    37    16    38    1
    38    17    23    1
    39    17    24    1
    40    17    27    1
    41    18    26    1
    42    18    39    1
    43    19    20    1
    44    19    40    1
    45    19    41    1
    46    20    21    1
    47    20    25    1
    48    20    42    1
    49    21    43    1
    50    22    25    1
    51    22    44    1
    52    23    45    1
    53    23    46    1
    54    24    26    1
    55    24    47    1
    56    24    48    1
    57    25    49    1
    58    26    50    1
    59    26    51    1
    60    27    52    1
    61    27    53    1
    62    28    30    1
    63    28    55    1
    64    28    56    1
    65    29    60    1
    66    29    61    1
    67    29    62    1
    68    30    63    1
    69    30    64    1
    70    30    65    1
    71    31    66    1
    72    31    67    1
    73    31    68    1
    74    32    69    1
    75    32    70    1
    76    32    71    1
