@<TRIPOS>MOLECULE
IMPHY013442
 98 103 0 0 0
SMALL
GASTEIGER

@<TRIPOS>ATOM
      1 O           7.7331   -2.8450    0.0000 O.3     1  UNL1       -0.3405
      2 O           9.4651   -2.8450    0.0000 O.3     1  UNL1       -0.3460
      3 O          10.3312   -0.3450    0.0000 O.3     1  UNL1       -0.3313
      4 O           6.0010   -1.8450    0.0000 O.3     1  UNL1       -0.3460
      5 O           5.1350   -0.3450    0.0000 O.3     1  UNL1       -0.3405
      6 O           6.0010   -4.8450    0.0000 O.3     1  UNL1       -0.3865
      7 O           7.7331   -5.8450    0.0000 O.3     1  UNL1       -0.3864
      8 O           9.4651   -4.8450    0.0000 O.3     1  UNL1       -0.3841
      9 O          11.1972   -2.8450    0.0000 O.3     1  UNL1       -0.3865
     10 O          12.9292   -1.8450    0.0000 O.3     1  UNL1       -0.3864
     11 O          11.1972    1.1550    0.0000 O.3     1  UNL1       -0.4532
     12 O           4.2690   -2.8450    0.0000 O.3     1  UNL1       -0.3841
     13 O          12.9292    0.1550    0.0000 O.3     1  UNL1       -0.3829
     14 O           2.5369   -1.8450    0.0000 O.3     1  UNL1       -0.3864
     15 O           2.5369    0.1550    0.0000 O.3     1  UNL1       -0.3865
     16 O           5.1350    1.6550    0.0000 O.3     1  UNL1       -0.3924
     17 O           9.4651    3.1550    0.0000 O.2     1  UNL1       -0.4507
     18 O           9.4651    0.1550    0.0000 O.2     1  UNL1       -0.2830
     19 O           7.7167    0.1204    0.0000 O.3     1  UNL1       -0.5058
     20 O           5.9350    3.1792    0.0000 O.3     1  UNL1       -0.5065
     21 O          12.0632    5.6550    0.0000 O.3     1  UNL1       -0.4914
     22 O          13.7953    4.6550    0.0000 O.3     1  UNL1       -0.5033
     23 C           6.8671   -3.3450    0.0000 C.3     1  UNL1        0.1134
     24 C           6.8671   -4.3450    0.0000 C.3     1  UNL1        0.1119
     25 C           7.7331   -4.8450    0.0000 C.3     1  UNL1        0.1141
     26 C           8.5991   -4.3450    0.0000 C.3     1  UNL1        0.1341
     27 C           8.5991   -3.3450    0.0000 C.3     1  UNL1        0.1880
     28 C          10.3312   -1.3450    0.0000 C.3     1  UNL1        0.1144
     29 C          11.1972   -1.8450    0.0000 C.3     1  UNL1        0.1120
     30 C          12.0632   -1.3450    0.0000 C.3     1  UNL1        0.1152
     31 C           6.0010   -2.8450    0.0000 C.3     1  UNL1        0.0796
     32 C           5.1350   -1.3450    0.0000 C.3     1  UNL1        0.1880
     33 C           4.2690   -1.8450    0.0000 C.3     1  UNL1        0.1341
     34 C          12.0632   -0.3450    0.0000 C.3     1  UNL1        0.1454
     35 C           9.4651   -1.8450    0.0000 C.3     1  UNL1        0.0796
     36 C           3.4030   -1.3450    0.0000 C.3     1  UNL1        0.1141
     37 C           3.4030   -0.3450    0.0000 C.3     1  UNL1        0.1119
     38 C           4.2690    0.1550    0.0000 C.3     1  UNL1        0.1130
     39 C          11.1972    0.1550    0.0000 C.3     1  UNL1        0.2311
     40 C           4.2690    1.1550    0.0000 C.3     1  UNL1        0.0730
     41 C          10.3312    1.6550    0.0000 C.ar    1  UNL1        0.2138
     42 C          10.3312    2.6550    0.0000 C.ar    1  UNL1        0.1810
     43 C           9.4651    1.1550    0.0000 C.ar    1  UNL1        0.2382
     44 C           8.5991    1.6550    0.0000 C.ar    1  UNL1        0.1092
     45 C          11.1972    3.1550    0.0000 C.ar    1  UNL1        0.0247
     46 C           8.5991    2.6550    0.0000 C.ar    1  UNL1        0.1465
     47 C           7.7052    1.1203    0.0000 C.ar    1  UNL1        0.1348
     48 C           7.7052    3.1897    0.0000 C.ar    1  UNL1        0.0231
     49 C          11.1972    4.1550    0.0000 C.ar    1  UNL1       -0.0055
     50 C          12.0632    2.6550    0.0000 C.ar    1  UNL1       -0.0473
     51 C           6.7991    1.6342    0.0000 C.ar    1  UNL1        0.0223
     52 C           6.7991    2.6758    0.0000 C.ar    1  UNL1        0.1239
     53 C          12.0632    4.6550    0.0000 C.ar    1  UNL1        0.1619
     54 C          12.9292    3.1550    0.0000 C.ar    1  UNL1       -0.0159
     55 C          12.9292    4.1550    0.0000 C.ar    1  UNL1        0.1585
     56 C          11.1972    6.1550    0.0000 C.3     1  UNL1        0.0790
     57 H           6.8671   -2.7250    0.0000 H       1  UNL1        0.0647
     58 H           6.3301   -4.0350    0.0000 H       1  UNL1        0.0647
     59 H           8.2700   -5.1550    0.0000 H       1  UNL1        0.0648
     60 H           9.1360   -4.0350    0.0000 H       1  UNL1        0.0671
     61 H           8.5991   -2.7250    0.0000 H       1  UNL1        0.0937
     62 H           9.7942   -1.0350    0.0000 H       1  UNL1        0.0647
     63 H          11.7341   -2.1550    0.0000 H       1  UNL1        0.0647
     64 H          12.0632   -1.9650    0.0000 H       1  UNL1        0.0648
     65 H           5.3905   -2.7373    0.0000 H       1  UNL1        0.0587
     66 H           5.7890   -3.4276    0.0000 H       1  UNL1        0.0587
     67 H           5.1350   -1.9650    0.0000 H       1  UNL1        0.0937
     68 H           3.7320   -2.1550    0.0000 H       1  UNL1        0.0671
     69 H          12.6002   -0.6550    0.0000 H       1  UNL1        0.0683
     70 H           9.2531   -1.2624    0.0000 H       1  UNL1        0.0587
     71 H           8.8546   -1.9527    0.0000 H       1  UNL1        0.0587
     72 H           2.8660   -1.0350    0.0000 H       1  UNL1        0.0648
     73 H           3.4030    0.2750    0.0000 H       1  UNL1        0.0647
     74 H           4.8059    0.4650    0.0000 H       1  UNL1        0.0647
     75 H          11.7341    0.4650    0.0000 H       1  UNL1        0.1084
     76 H           5.4641   -4.5350    0.0000 H       1  UNL1        0.2100
     77 H           4.0569    1.7376    0.0000 H       1  UNL1        0.0584
     78 H           3.6584    1.0473    0.0000 H       1  UNL1        0.0584
     79 H           7.1962   -6.1550    0.0000 H       1  UNL1        0.2100
     80 H          10.0021   -4.5350    0.0000 H       1  UNL1        0.2101
     81 H          11.7341   -3.1550    0.0000 H       1  UNL1        0.2100
     82 H          12.9292   -2.4650    0.0000 H       1  UNL1        0.2100
     83 H           3.7320   -3.1550    0.0000 H       1  UNL1        0.2101
     84 H          13.4662   -0.1550    0.0000 H       1  UNL1        0.2102
     85 H           2.0000   -1.5350    0.0000 H       1  UNL1        0.2100
     86 H           2.5369    0.7750    0.0000 H       1  UNL1        0.2100
     87 H           5.1350    2.2750    0.0000 H       1  UNL1        0.2095
     88 H           7.7123    3.8096    0.0000 H       1  UNL1        0.0691
     89 H          10.6603    4.4650    0.0000 H       1  UNL1        0.0662
     90 H          12.0632    2.0350    0.0000 H       1  UNL1        0.0626
     91 H           6.2634    1.3221    0.0000 H       1  UNL1        0.0691
     92 H          13.4662    2.8450    0.0000 H       1  UNL1        0.0655
     93 H           7.1834   -0.1958    0.0000 H       1  UNL1        0.2922
     94 H           5.3969    2.8712    0.0000 H       1  UNL1        0.2921
     95 H          13.7953    5.2750    0.0000 H       1  UNL1        0.2923
     96 H          11.5072    6.6919    0.0000 H       1  UNL1        0.0660
     97 H          10.6603    6.4650    0.0000 H       1  UNL1        0.0660
     98 H          10.8872    5.6181    0.0000 H       1  UNL1        0.0660
@<TRIPOS>BOND
     1     1    23    1
     2     1    27    1
     3    27     2    1
     4     2    35    1
     5     3    28    1
     6     3    39    1
     7     4    31    1
     8    32     4    1
     9     5    32    1
    10     5    38    1
    11    24     6    1
    12     6    76    1
    13    25     7    1
    14     7    79    1
    15     8    26    1
    16     8    80    1
    17    29     9    1
    18     9    81    1
    19    10    30    1
    20    10    82    1
    21    39    11    1
    22    11    41    1
    23    12    33    1
    24    12    83    1
    25    13    34    1
    26    13    84    1
    27    36    14    1
    28    14    85    1
    29    37    15    1
    30    15    86    1
    31    16    40    1
    32    16    87    1
    33    17    42   ar
    34    17    46   ar
    35    18    43    2
    36    19    47    1
    37    19    93    1
    38    20    52    1
    39    20    94    1
    40    21    53    1
    41    21    56    1
    42    22    55    1
    43    22    95    1
    44    23    24    1
    45    23    31    1
    46    23    57    1
    47    24    25    1
    48    24    58    1
    49    25    26    1
    50    25    59    1
    51    26    27    1
    52    26    60    1
    53    27    61    1
    54    28    29    1
    55    28    35    1
    56    28    62    1
    57    29    30    1
    58    29    63    1
    59    30    34    1
    60    30    64    1
    61    31    65    1
    62    31    66    1
    63    32    33    1
    64    32    67    1
    65    33    36    1
    66    33    68    1
    67    34    39    1
    68    34    69    1
    69    35    70    1
    70    35    71    1
    71    36    37    1
    72    36    72    1
    73    37    38    1
    74    37    73    1
    75    38    40    1
    76    38    74    1
    77    39    75    1
    78    40    77    1
    79    40    78    1
    80    41    42   ar
    81    41    43   ar
    82    42    45    1
    83    43    44   ar
    84    44    46   ar
    85    44    47   ar
    86    45    49   ar
    87    45    50   ar
    88    46    48   ar
    89    47    51   ar
    90    48    52   ar
    91    48    88    1
    92    49    53   ar
    93    49    89    1
    94    50    54   ar
    95    50    90    1
    96    51    52   ar
    97    51    91    1
    98    53    55   ar
    99    54    55   ar
   100    54    92    1
   101    56    96    1
   102    56    97    1
   103    56    98    1
