@<TRIPOS>MOLECULE
IMPHY008767
 41 43 0 0 0
SMALL
GASTEIGER

@<TRIPOS>ATOM
      1 O           5.5301   -0.0000    0.0000 O.2     1  UNL1       -0.4545
      2 O           9.8602    0.5000    0.0000 O.3     1  UNL1       -0.4913
      3 O           8.1282   -2.5000    0.0000 O.3     1  UNL1       -0.4913
      4 O           9.8602   -1.5000    0.0000 O.3     1  UNL1       -0.4885
      5 O           5.5301    3.0000    0.0000 O.2     1  UNL1       -0.2870
      6 O           2.0000    2.0242    0.0000 O.3     1  UNL1       -0.5033
      7 O           2.0000   -0.0241    0.0000 O.3     1  UNL1       -0.5032
      8 C           7.2622   -0.0000    0.0000 C.ar    1  UNL1        0.0245
      9 C           6.3961    0.5000    0.0000 C.ar    1  UNL1        0.1395
     10 C           4.6641    1.5000    0.0000 C.ar    1  UNL1        0.0677
     11 C           4.6641    0.5000    0.0000 C.ar    1  UNL1        0.1429
     12 C           7.2622   -1.0000    0.0000 C.ar    1  UNL1       -0.0054
     13 C           8.1282    0.5000    0.0000 C.ar    1  UNL1       -0.0054
     14 C           6.3961    1.5000    0.0000 C.ar    1  UNL1        0.0287
     15 C           5.5301    2.0000    0.0000 C.ar    1  UNL1        0.1932
     16 C           8.9942   -0.0000    0.0000 C.ar    1  UNL1        0.1658
     17 C           8.1282   -1.5000    0.0000 C.ar    1  UNL1        0.1658
     18 C           8.9942   -1.0000    0.0000 C.ar    1  UNL1        0.2035
     19 C           3.7702    2.0347    0.0000 C.ar    1  UNL1       -0.0022
     20 C           3.7702   -0.0347    0.0000 C.ar    1  UNL1        0.0265
     21 C           2.8641    1.5208    0.0000 C.ar    1  UNL1        0.1591
     22 C           2.8641    0.4792    0.0000 C.ar    1  UNL1        0.1618
     23 C           9.8602    1.5000    0.0000 C.3     1  UNL1        0.0790
     24 C           7.2622   -3.0000    0.0000 C.3     1  UNL1        0.0790
     25 C          10.7263   -1.0000    0.0000 C.3     1  UNL1        0.0791
     26 H           6.7252   -1.3100    0.0000 H       1  UNL1        0.0662
     27 H           8.1282    1.1200    0.0000 H       1  UNL1        0.0662
     28 H           6.9331    1.8100    0.0000 H       1  UNL1        0.0693
     29 H           3.7773    2.6546    0.0000 H       1  UNL1        0.0663
     30 H           3.7773   -0.6546    0.0000 H       1  UNL1        0.0692
     31 H          10.4803    1.5000    0.0000 H       1  UNL1        0.0660
     32 H           9.8602    2.1200    0.0000 H       1  UNL1        0.0660
     33 H           9.2402    1.5000    0.0000 H       1  UNL1        0.0660
     34 H           6.9522   -2.4631    0.0000 H       1  UNL1        0.0660
     35 H           6.7252   -3.3100    0.0000 H       1  UNL1        0.0660
     36 H           7.5722   -3.5369    0.0000 H       1  UNL1        0.0660
     37 H          11.0363   -1.5369    0.0000 H       1  UNL1        0.0660
     38 H          11.2632   -0.6900    0.0000 H       1  UNL1        0.0660
     39 H          10.4163   -0.4631    0.0000 H       1  UNL1        0.0660
     40 H           2.0024    2.6441    0.0000 H       1  UNL1        0.2923
     41 H           2.0024   -0.6441    0.0000 H       1  UNL1        0.2923
@<TRIPOS>BOND
     1     1     9   ar
     2     1    11   ar
     3     2    16    1
     4     2    23    1
     5     3    17    1
     6     3    24    1
     7     4    18    1
     8     4    25    1
     9     5    15    2
    10     6    21    1
    11     6    40    1
    12     7    22    1
    13     7    41    1
    14     8     9    1
    15     8    12   ar
    16     8    13   ar
    17     9    14   ar
    18    10    11   ar
    19    10    15   ar
    20    10    19   ar
    21    11    20   ar
    22    12    17   ar
    23    12    26    1
    24    13    16   ar
    25    13    27    1
    26    14    15   ar
    27    14    28    1
    28    16    18   ar
    29    17    18   ar
    30    19    21   ar
    31    19    29    1
    32    20    22   ar
    33    20    30    1
    34    21    22   ar
    35    23    31    1
    36    23    32    1
    37    23    33    1
    38    24    34    1
    39    24    35    1
    40    24    36    1
    41    25    37    1
    42    25    38    1
    43    25    39    1
