@<TRIPOS>MOLECULE
IMPHY005736
 95 94 0 0 0
SMALL
GASTEIGER

@<TRIPOS>ATOM
      1 O           9.7942   -0.5950    0.0000 O.3     1  UNL1       -0.3918
      2 O          14.9904   -0.5950    0.0000 O.2     1  UNL1       -0.2974
      3 C           9.7942    0.4050    0.0000 C.3     1  UNL1        0.0553
      4 C           8.9282    0.9050    0.0000 C.3     1  UNL1       -0.0269
      5 C          10.6603    0.9050    0.0000 C.3     1  UNL1       -0.0269
      6 C           8.0622    0.4050    0.0000 C.3     1  UNL1       -0.0507
      7 C          11.5263    0.4050    0.0000 C.3     1  UNL1       -0.0507
      8 C           7.1962    0.9050    0.0000 C.3     1  UNL1       -0.0530
      9 C          20.1865    0.4050    0.0000 C.3     1  UNL1       -0.0531
     10 C          21.0526    0.9050    0.0000 C.3     1  UNL1       -0.0531
     11 C          12.3923    0.9050    0.0000 C.3     1  UNL1       -0.0526
     12 C          19.3205    0.9050    0.0000 C.3     1  UNL1       -0.0531
     13 C          21.9186    0.4050    0.0000 C.3     1  UNL1       -0.0531
     14 C           6.3301    0.4050    0.0000 C.3     1  UNL1       -0.0531
     15 C          18.4545    0.4050    0.0000 C.3     1  UNL1       -0.0530
     16 C          22.7846    0.9050    0.0000 C.3     1  UNL1       -0.0531
     17 C          17.5885    0.9050    0.0000 C.3     1  UNL1       -0.0527
     18 C          13.2583    0.4050    0.0000 C.3     1  UNL1       -0.0464
     19 C          23.6506    0.4050    0.0000 C.3     1  UNL1       -0.0531
     20 C           5.4641    0.9050    0.0000 C.3     1  UNL1       -0.0531
     21 C          16.7224    0.4050    0.0000 C.3     1  UNL1       -0.0464
     22 C          24.5167    0.9050    0.0000 C.3     1  UNL1       -0.0531
     23 C          14.1244    0.9050    0.0000 C.3     1  UNL1        0.0058
     24 C          15.8564    0.9050    0.0000 C.3     1  UNL1        0.0058
     25 C           4.5981    0.4050    0.0000 C.3     1  UNL1       -0.0531
     26 C          25.3827    0.4050    0.0000 C.3     1  UNL1       -0.0531
     27 C          14.9904    0.4050    0.0000 C.2     1  UNL1        0.1334
     28 C           3.7320    0.9050    0.0000 C.3     1  UNL1       -0.0533
     29 C          26.2487    0.9050    0.0000 C.3     1  UNL1       -0.0533
     30 C           2.8660    0.4050    0.0000 C.3     1  UNL1       -0.0559
     31 C          27.1147    0.4050    0.0000 C.3     1  UNL1       -0.0559
     32 C           2.0000    0.9050    0.0000 C.3     1  UNL1       -0.0653
     33 C          27.9808    0.9050    0.0000 C.3     1  UNL1       -0.0653
     34 H           9.2573    0.0950    0.0000 H       1  UNL1        0.0593
     35 H           9.3267    1.3800    0.0000 H       1  UNL1        0.0290
     36 H           8.5297    1.3800    0.0000 H       1  UNL1        0.0290
     37 H          11.0588    1.3800    0.0000 H       1  UNL1        0.0290
     38 H          10.2617    1.3800    0.0000 H       1  UNL1        0.0290
     39 H           7.6636   -0.0699    0.0000 H       1  UNL1        0.0266
     40 H           8.4607   -0.0699    0.0000 H       1  UNL1        0.0266
     41 H          11.1278   -0.0699    0.0000 H       1  UNL1        0.0266
     42 H          11.9248   -0.0699    0.0000 H       1  UNL1        0.0266
     43 H           7.5947    1.3800    0.0000 H       1  UNL1        0.0265
     44 H           6.7976    1.3800    0.0000 H       1  UNL1        0.0265
     45 H          19.7880   -0.0699    0.0000 H       1  UNL1        0.0265
     46 H          20.5851   -0.0699    0.0000 H       1  UNL1        0.0265
     47 H          21.4511    1.3800    0.0000 H       1  UNL1        0.0265
     48 H          20.6540    1.3800    0.0000 H       1  UNL1        0.0265
     49 H          19.7190    1.3800    0.0000 H       1  UNL1        0.0265
     50 H          18.9220    1.3800    0.0000 H       1  UNL1        0.0265
     51 H          12.7908    1.3800    0.0000 H       1  UNL1        0.0265
     52 H          11.9938    1.3800    0.0000 H       1  UNL1        0.0265
     53 H          21.5201   -0.0699    0.0000 H       1  UNL1        0.0265
     54 H          22.3171   -0.0699    0.0000 H       1  UNL1        0.0265
     55 H           5.9316   -0.0699    0.0000 H       1  UNL1        0.0265
     56 H           6.7287   -0.0699    0.0000 H       1  UNL1        0.0265
     57 H          18.0560   -0.0699    0.0000 H       1  UNL1        0.0265
     58 H          18.8530   -0.0699    0.0000 H       1  UNL1        0.0265
     59 H          23.1831    1.3800    0.0000 H       1  UNL1        0.0265
     60 H          22.3861    1.3800    0.0000 H       1  UNL1        0.0265
     61 H          17.9870    1.3800    0.0000 H       1  UNL1        0.0265
     62 H          17.1899    1.3800    0.0000 H       1  UNL1        0.0265
     63 H          12.8598   -0.0699    0.0000 H       1  UNL1        0.0269
     64 H          13.6569   -0.0699    0.0000 H       1  UNL1        0.0269
     65 H          23.2521   -0.0699    0.0000 H       1  UNL1        0.0265
     66 H          24.0492   -0.0699    0.0000 H       1  UNL1        0.0265
     67 H           5.8626    1.3800    0.0000 H       1  UNL1        0.0265
     68 H           5.0656    1.3800    0.0000 H       1  UNL1        0.0265
     69 H          16.3239   -0.0699    0.0000 H       1  UNL1        0.0269
     70 H          17.1210   -0.0699    0.0000 H       1  UNL1        0.0269
     71 H          24.9152    1.3800    0.0000 H       1  UNL1        0.0265
     72 H          24.1181    1.3800    0.0000 H       1  UNL1        0.0265
     73 H          14.5229    1.3800    0.0000 H       1  UNL1        0.0342
     74 H          13.7258    1.3800    0.0000 H       1  UNL1        0.0342
     75 H          16.2549    1.3800    0.0000 H       1  UNL1        0.0342
     76 H          15.4579    1.3800    0.0000 H       1  UNL1        0.0342
     77 H           4.1996   -0.0699    0.0000 H       1  UNL1        0.0265
     78 H           4.9966   -0.0699    0.0000 H       1  UNL1        0.0265
     79 H          24.9842   -0.0699    0.0000 H       1  UNL1        0.0265
     80 H          25.7812   -0.0699    0.0000 H       1  UNL1        0.0265
     81 H           4.1306    1.3800    0.0000 H       1  UNL1        0.0265
     82 H           3.3335    1.3800    0.0000 H       1  UNL1        0.0265
     83 H          26.6472    1.3800    0.0000 H       1  UNL1        0.0265
     84 H          25.8502    1.3800    0.0000 H       1  UNL1        0.0265
     85 H           9.2573   -0.9050    0.0000 H       1  UNL1        0.2098
     86 H           2.4675   -0.0699    0.0000 H       1  UNL1        0.0263
     87 H           3.2646   -0.0699    0.0000 H       1  UNL1        0.0263
     88 H          26.7162   -0.0699    0.0000 H       1  UNL1        0.0263
     89 H          27.5133   -0.0699    0.0000 H       1  UNL1        0.0263
     90 H           2.3100    1.4419    0.0000 H       1  UNL1        0.0230
     91 H           1.4631    1.2150    0.0000 H       1  UNL1        0.0230
     92 H           1.6900    0.3681    0.0000 H       1  UNL1        0.0230
     93 H          28.2908    0.3681    0.0000 H       1  UNL1        0.0230
     94 H          28.5177    1.2150    0.0000 H       1  UNL1        0.0230
     95 H          27.6708    1.4419    0.0000 H       1  UNL1        0.0230
@<TRIPOS>BOND
     1     1     3    1
     2     1    85    1
     3     2    27    2
     4     3     4    1
     5     3     5    1
     6     3    34    1
     7     4     6    1
     8     4    35    1
     9     4    36    1
    10     5     7    1
    11     5    37    1
    12     5    38    1
    13     6     8    1
    14     6    39    1
    15     6    40    1
    16     7    11    1
    17     7    41    1
    18     7    42    1
    19     8    14    1
    20     8    43    1
    21     8    44    1
    22     9    10    1
    23     9    12    1
    24     9    45    1
    25     9    46    1
    26    10    13    1
    27    10    47    1
    28    10    48    1
    29    11    18    1
    30    11    51    1
    31    11    52    1
    32    12    15    1
    33    12    49    1
    34    12    50    1
    35    13    16    1
    36    13    53    1
    37    13    54    1
    38    14    20    1
    39    14    55    1
    40    14    56    1
    41    15    17    1
    42    15    57    1
    43    15    58    1
    44    16    19    1
    45    16    59    1
    46    16    60    1
    47    17    21    1
    48    17    61    1
    49    17    62    1
    50    18    23    1
    51    18    63    1
    52    18    64    1
    53    19    22    1
    54    19    65    1
    55    19    66    1
    56    20    25    1
    57    20    67    1
    58    20    68    1
    59    21    24    1
    60    21    69    1
    61    21    70    1
    62    22    26    1
    63    22    71    1
    64    22    72    1
    65    23    27    1
    66    23    73    1
    67    23    74    1
    68    24    27    1
    69    24    75    1
    70    24    76    1
    71    25    28    1
    72    25    77    1
    73    25    78    1
    74    26    29    1
    75    26    79    1
    76    26    80    1
    77    28    30    1
    78    28    81    1
    79    28    82    1
    80    29    31    1
    81    29    83    1
    82    29    84    1
    83    30    32    1
    84    30    86    1
    85    30    87    1
    86    31    33    1
    87    31    88    1
    88    31    89    1
    89    32    90    1
    90    32    91    1
    91    32    92    1
    92    33    93    1
    93    33    94    1
    94    33    95    1
