@<TRIPOS>MOLECULE
IMPHY000081
 42 46 0 0 0
SMALL
GASTEIGER

@<TRIPOS>ATOM
      1 O           7.6797    2.8931    0.0000 O.2     1  UNL1       -0.3007
      2 N           6.5117   -0.0907    0.0000 N.3     1  UNL1       -0.2862
      3 N           4.2558   -0.5248    0.0000 N.ar    1  UNL1       -0.3564
      4 C           6.5117    0.7776    0.0000 C.3     1  UNL1        0.0252
      5 C           6.5117   -1.8272    0.0000 C.3     1  UNL1       -0.0062
      6 C           5.7597   -0.5248    0.0000 C.3     1  UNL1        0.0521
      7 C           7.2636    1.2117    0.0000 C.3     1  UNL1        0.0369
      8 C           5.7597   -1.3931    0.0000 C.3     1  UNL1       -0.0245
      9 C           7.2636   -0.5248    0.0000 C.3     1  UNL1        0.0212
     10 C           5.7597    1.2117    0.0000 C.3     1  UNL1       -0.0090
     11 C           7.2636   -1.3931    0.0000 C.2     1  UNL1       -0.0559
     12 C           5.0078   -0.0907    0.0000 C.ar    1  UNL1        0.0377
     13 C           5.0078    0.7776    0.0000 C.ar    1  UNL1       -0.0161
     14 C           7.9570    1.9323    0.0000 C.2     1  UNL1        0.1254
     15 C           3.5039    0.7776    0.0000 C.ar    1  UNL1        0.0032
     16 C           8.1297   -1.8931    0.0000 C.2     1  UNL1       -0.0864
     17 C           3.5039   -0.0907    0.0000 C.ar    1  UNL1        0.0470
     18 C           2.7520    1.2117    0.0000 C.ar    1  UNL1       -0.0523
     19 C           8.1297   -2.8931    0.0000 C.3     1  UNL1       -0.0465
     20 C           2.7520   -0.5248    0.0000 C.ar    1  UNL1       -0.0378
     21 C           2.0000    0.7776    0.0000 C.ar    1  UNL1       -0.0611
     22 C           2.0000   -0.0907    0.0000 C.ar    1  UNL1       -0.0598
     23 H           6.5117    1.6276    0.0000 H       1  UNL1        0.0473
     24 H           6.5117   -2.6772    0.0000 H       1  UNL1        0.0354
     25 H           5.0902   -1.0484    0.0000 H       1  UNL1        0.0527
     26 H           7.8655    1.0628    0.0000 H       1  UNL1        0.0396
     27 H           5.1492   -1.2854    0.0000 H       1  UNL1        0.0290
     28 H           5.5477   -1.9757    0.0000 H       1  UNL1        0.0290
     29 H           6.1583    1.6867    0.0000 H       1  UNL1        0.0329
     30 H           5.3612    1.6867    0.0000 H       1  UNL1        0.0329
     31 H           7.8742   -0.6325    0.0000 H       1  UNL1        0.0473
     32 H           7.4757    0.0578    0.0000 H       1  UNL1        0.0473
     33 H           8.5589    1.7834    0.0000 H       1  UNL1        0.1030
     34 H           4.2558   -1.1448    0.0000 H       1  UNL1        0.1656
     35 H           8.6666   -1.5831    0.0000 H       1  UNL1        0.0569
     36 H           2.7520    1.8317    0.0000 H       1  UNL1        0.0624
     37 H           7.5097   -2.8931    0.0000 H       1  UNL1        0.0272
     38 H           8.1297   -3.5131    0.0000 H       1  UNL1        0.0272
     39 H           8.7497   -2.8931    0.0000 H       1  UNL1        0.0272
     40 H           2.7520   -1.1448    0.0000 H       1  UNL1        0.0638
     41 H           1.4631    1.0876    0.0000 H       1  UNL1        0.0618
     42 H           1.4631   -0.4007    0.0000 H       1  UNL1        0.0618
@<TRIPOS>BOND
     1     1    14    2
     2     2     4    1
     3     2     6    1
     4     2     9    1
     5     3    12   ar
     6     3    17   ar
     7     3    34    1
     8     4     7    1
     9     4    10    1
    10     4    23    1
    11     5     7    1
    12     5     8    1
    13     5    11    1
    14     5    24    1
    15     6     8    1
    16     6    12    1
    17     6    25    1
    18     7    14    1
    19     7    26    1
    20     8    27    1
    21     8    28    1
    22     9    11    1
    23     9    31    1
    24     9    32    1
    25    10    13    1
    26    10    29    1
    27    10    30    1
    28    11    16    2
    29    12    13   ar
    30    13    15   ar
    31    14    33    1
    32    15    17   ar
    33    15    18   ar
    34    16    19    1
    35    16    35    1
    36    17    20   ar
    37    18    21   ar
    38    18    36    1
    39    19    37    1
    40    19    38    1
    41    19    39    1
    42    20    22   ar
    43    20    40    1
    44    21    22   ar
    45    21    41    1
    46    22    42    1
