@<TRIPOS>MOLECULE
IMPHY016606
 38 39 0 0 0
SMALL
GASTEIGER

@<TRIPOS>ATOM
      1 C           4.0501   -0.5156    0.0000 C.3     1  UNL1       -0.0031
      2 C           3.5723    1.4329    0.0000 C.3     1  UNL1       -0.0225
      3 C           4.3089    0.4503    0.0000 C.3     1  UNL1       -0.0314
      4 C           2.8290   -1.3813    0.0000 C.3     1  UNL1       -0.0343
      5 C           5.7078   -0.0585    0.0000 C.3     1  UNL1       -0.0279
      6 C           5.4490   -1.0245    0.0000 C.2     1  UNL1       -0.0668
      7 C           2.2756    0.1392    0.0000 C.3     1  UNL1       -0.0491
      8 C           2.0000   -0.8221    0.0000 C.3     1  UNL1       -0.0494
      9 C           3.7912   -1.4816    0.0000 C.3     1  UNL1       -0.0551
     10 C           3.6768    2.4274    0.0000 C.3     1  UNL1       -0.0588
     11 C           2.6587    1.8396    0.0000 C.3     1  UNL1       -0.0588
     12 C           2.8639   -2.3807    0.0000 C.3     1  UNL1       -0.0616
     13 C           5.9490   -1.8905    0.0000 C.2     1  UNL1       -0.0873
     14 C           6.9490   -1.8905    0.0000 C.3     1  UNL1       -0.0465
     15 H           4.5289    1.2713    0.0000 H       1  UNL1        0.0309
     16 H           2.2868   -1.6819    0.0000 H       1  UNL1        0.0307
     17 H           6.3018   -0.2363    0.0000 H       1  UNL1        0.0313
     18 H           5.9028    0.5300    0.0000 H       1  UNL1        0.0313
     19 H           2.2706    0.7591    0.0000 H       1  UNL1        0.0268
     20 H           1.6613    0.2229    0.0000 H       1  UNL1        0.0268
     21 H           1.4252   -0.5899    0.0000 H       1  UNL1        0.0268
     22 H           1.7089   -1.3695    0.0000 H       1  UNL1        0.0268
     23 H           3.1924   -1.3211    0.0000 H       1  UNL1        0.0238
     24 H           3.6308   -2.0804    0.0000 H       1  UNL1        0.0238
     25 H           4.3901   -1.6420    0.0000 H       1  UNL1        0.0238
     26 H           4.2934    2.3626    0.0000 H       1  UNL1        0.0235
     27 H           3.7416    3.0440    0.0000 H       1  UNL1        0.0235
     28 H           3.0602    2.4922    0.0000 H       1  UNL1        0.0235
     29 H           2.9109    2.4060    0.0000 H       1  UNL1        0.0235
     30 H           2.0923    2.0918    0.0000 H       1  UNL1        0.0235
     31 H           2.4065    1.2732    0.0000 H       1  UNL1        0.0235
     32 H           2.2443   -2.4023    0.0000 H       1  UNL1        0.0233
     33 H           2.8856   -3.0003    0.0000 H       1  UNL1        0.0233
     34 H           3.4836   -2.3591    0.0000 H       1  UNL1        0.0233
     35 H           5.6390   -2.4274    0.0000 H       1  UNL1        0.0569
     36 H           6.9490   -2.5105    0.0000 H       1  UNL1        0.0272
     37 H           7.5690   -1.8905    0.0000 H       1  UNL1        0.0272
     38 H           6.9490   -1.2705    0.0000 H       1  UNL1        0.0272
@<TRIPOS>BOND
     1     1     2    1
     2     1     4    1
     3     1     6    1
     4     1     9    1
     5     2     3    1
     6     2    10    1
     7     2    11    1
     8     3     5    1
     9     3     7    1
    10     3    15    1
    11     4     8    1
    12     4    12    1
    13     4    16    1
    14     5     6    1
    15     5    17    1
    16     5    18    1
    17     6    13    2
    18     7     8    1
    19     7    19    1
    20     7    20    1
    21     8    21    1
    22     8    22    1
    23     9    23    1
    24     9    24    1
    25     9    25    1
    26    10    26    1
    27    10    27    1
    28    10    28    1
    29    11    29    1
    30    11    30    1
    31    11    31    1
    32    12    32    1
    33    12    33    1
    34    12    34    1
    35    13    14    1
    36    13    35    1
    37    14    36    1
    38    14    37    1
    39    14    38    1
