@<TRIPOS>MOLECULE
IMPHY009077
 52 55 0 0 0
SMALL
GASTEIGER

@<TRIPOS>ATOM
      1 O          11.3520   -1.2847    0.0000 O.3     1  UNL1       -0.4814
      2 O           9.5920    1.7500    0.0000 O.3     1  UNL1       -0.4936
      3 O           7.8600   -1.2500    0.0000 O.3     1  UNL1       -0.4942
      4 O           2.5836    0.5547    0.0000 O.3     1  UNL1       -0.4526
      5 O           2.5836   -1.0547    0.0000 O.3     1  UNL1       -0.4526
      6 O           7.8600    1.7500    0.0000 O.2     1  UNL1       -0.2869
      7 O           6.1279    1.7500    0.0000 O.2     1  UNL1       -0.5061
      8 C          12.2580   -0.7708    0.0000 C.3     1  UNL1        0.1235
      9 C          10.4580    0.2500    0.0000 C.ar    1  UNL1        0.0591
     10 C          10.4580   -0.7500    0.0000 C.ar    1  UNL1        0.1359
     11 C          12.2580    0.2708    0.0000 C.2     1  UNL1       -0.0408
     12 C          13.2580   -0.7747    0.0000 C.3     1  UNL1       -0.0215
     13 C          12.7547   -1.6388    0.0000 C.3     1  UNL1       -0.0215
     14 C          11.3520    0.7847    0.0000 C.2     1  UNL1       -0.0478
     15 C           9.5920    0.7500    0.0000 C.ar    1  UNL1        0.1450
     16 C           8.7260    0.2500    0.0000 C.ar    1  UNL1        0.1057
     17 C           9.5920   -1.2500    0.0000 C.ar    1  UNL1        0.0233
     18 C           8.7260   -0.7500    0.0000 C.ar    1  UNL1        0.1379
     19 C           7.8600    0.7500    0.0000 C.2     1  UNL1        0.1966
     20 C           6.9939    0.2500    0.0000 C.2     1  UNL1        0.0280
     21 C           5.2619    0.2500    0.0000 C.ar    1  UNL1        0.0202
     22 C           6.1279    0.7500    0.0000 C.2     1  UNL1        0.1277
     23 C           3.5298    0.2500    0.0000 C.ar    1  UNL1        0.1669
     24 C           3.5298   -0.7500    0.0000 C.ar    1  UNL1        0.1663
     25 C           4.3958    0.7500    0.0000 C.ar    1  UNL1       -0.0055
     26 C          10.4580    2.2500    0.0000 C.3     1  UNL1        0.0788
     27 C           5.2619   -0.7500    0.0000 C.ar    1  UNL1       -0.0474
     28 C           4.3958   -1.2500    0.0000 C.ar    1  UNL1       -0.0155
     29 C           7.8600   -2.2500    0.0000 C.3     1  UNL1        0.0788
     30 C           2.0000   -0.2500    0.0000 C.3     1  UNL1        0.2332
     31 H          12.7938    0.5829    0.0000 H       1  UNL1        0.0611
     32 H          13.2556   -1.3947    0.0000 H       1  UNL1        0.0271
     33 H          12.2166   -1.9467    0.0000 H       1  UNL1        0.0271
     34 H          13.0626   -2.1769    0.0000 H       1  UNL1        0.0271
     35 H          13.2928   -1.3308    0.0000 H       1  UNL1        0.0271
     36 H          13.8780   -0.7771    0.0000 H       1  UNL1        0.0271
     37 H          13.2604   -0.1547    0.0000 H       1  UNL1        0.0271
     38 H          11.3448    1.4046    0.0000 H       1  UNL1        0.0624
     39 H           9.5920   -1.8700    0.0000 H       1  UNL1        0.0691
     40 H           6.9939   -0.3700    0.0000 H       1  UNL1        0.0693
     41 H           4.3958    1.3700    0.0000 H       1  UNL1        0.0662
     42 H           5.7988   -1.0600    0.0000 H       1  UNL1        0.0626
     43 H          10.7680    1.7131    0.0000 H       1  UNL1        0.0660
     44 H          10.9950    2.5600    0.0000 H       1  UNL1        0.0660
     45 H          10.1480    2.7869    0.0000 H       1  UNL1        0.0660
     46 H           4.3958   -1.8700    0.0000 H       1  UNL1        0.0655
     47 H           7.2400   -2.2500    0.0000 H       1  UNL1        0.0660
     48 H           7.8600   -2.8700    0.0000 H       1  UNL1        0.0660
     49 H           8.4800   -2.2500    0.0000 H       1  UNL1        0.0660
     50 H           1.5391    0.1647    0.0000 H       1  UNL1        0.1166
     51 H           1.5391   -0.6647    0.0000 H       1  UNL1        0.1166
     52 H           5.5910    2.0600    0.0000 H       1  UNL1        0.2922
@<TRIPOS>BOND
     1     1     8    1
     2     1    10    1
     3     2    15    1
     4     2    26    1
     5     3    18    1
     6     3    29    1
     7     4    23    1
     8     4    30    1
     9     5    24    1
    10     5    30    1
    11     6    19    2
    12     7    22    1
    13     7    52    1
    14     8    11    1
    15     8    12    1
    16     8    13    1
    17     9    10   ar
    18     9    14    1
    19     9    15   ar
    20    10    17   ar
    21    11    14    2
    22    11    31    1
    23    12    32    1
    24    12    36    1
    25    12    37    1
    26    13    33    1
    27    13    34    1
    28    13    35    1
    29    14    38    1
    30    15    16   ar
    31    16    18   ar
    32    16    19    1
    33    17    18   ar
    34    17    39    1
    35    19    20    1
    36    20    22    2
    37    20    40    1
    38    21    22    1
    39    21    25   ar
    40    21    27   ar
    41    23    24   ar
    42    23    25   ar
    43    24    28   ar
    44    25    41    1
    45    26    43    1
    46    26    44    1
    47    26    45    1
    48    27    28   ar
    49    27    42    1
    50    28    46    1
    51    29    47    1
    52    29    48    1
    53    29    49    1
    54    30    50    1
    55    30    51    1
