@<TRIPOS>MOLECULE
IMPHY012163
 15 15 0 0 0
SMALL
GASTEIGER

@<TRIPOS>ATOM
      1 O           3.7601   -1.1739    0.0000 O.3     1  UNL1       -0.3689
      2 O           2.6723    1.1739    0.0000 O.2     1  UNL1       -0.2946
      3 C           2.9511   -0.5861    0.0000 C.3     1  UNL1        0.1137
      4 C           4.2601    0.3649    0.0000 C.3     1  UNL1        0.0319
      5 C           4.5691   -0.5861    0.0000 C.3     1  UNL1        0.0553
      6 C           3.2601    0.3649    0.0000 C.2     1  UNL1        0.1637
      7 C           2.0000   -0.8952    0.0000 C.3     1  UNL1       -0.0317
      8 H           2.8541   -1.1985    0.0000 H       1  UNL1        0.0673
      9 H           4.8665    0.4938    0.0000 H       1  UNL1        0.0365
     10 H           4.1953    0.9815    0.0000 H       1  UNL1        0.0365
     11 H           4.8791   -1.1231    0.0000 H       1  UNL1        0.0564
     12 H           5.1355   -0.3340    0.0000 H       1  UNL1        0.0564
     13 H           1.8084   -0.3055    0.0000 H       1  UNL1        0.0259
     14 H           1.4103   -1.0868    0.0000 H       1  UNL1        0.0259
     15 H           2.1916   -1.4848    0.0000 H       1  UNL1        0.0259
@<TRIPOS>BOND
     1     1     3    1
     2     1     5    1
     3     2     6    2
     4     3     6    1
     5     3     7    1
     6     3     8    1
     7     4     5    1
     8     4     6    1
     9     4     9    1
    10     4    10    1
    11     5    11    1
    12     5    12    1
    13     7    13    1
    14     7    14    1
    15     7    15    1
