@<TRIPOS>MOLECULE
IMPHY017958
 11 10 0 0 0
SMALL
GASTEIGER

@<TRIPOS>ATOM
      1 O           2.5369    0.2500    0.0000 O.co2   1  UNL1       -0.2308
      2 O           3.4030   -1.2500    0.0000 O.co2   1  UNL1       -0.2308
      3 C           7.7331    1.2500    0.0000 C.3     1  UNL1        0.0010
      4 C           8.5991    0.7500    0.0000 C.3     1  UNL1        0.0000
      5 C           6.8671    0.7500    0.0000 C.3     1  UNL1        0.0140
      6 C           9.4651    1.2500    0.0000 C.3     1  UNL1        0.0000
      7 C           6.0010    1.2500    0.0000 C.3     1  UNL1        0.0766
      8 C          10.3312    0.7500    0.0000 C.3     1  UNL1        0.0000
      9 C           5.1350    0.7500    0.0000 C.1     1  UNL1       -0.0801
     10 C           4.2690    0.2500    0.0000 C.1     1  UNL1        0.0202
     11 C           3.4030   -0.2500    0.0000 C.2     1  UNL1        0.4300
@<TRIPOS>BOND
     1     1    11   ar
     2     2    11   ar
     3     3     4    1
     4     3     5    1
     5     4     6    1
     6     5     7    1
     7     6     8    1
     8     7     9    1
     9     9    10    3
    10    10    11    1
