@<TRIPOS>MOLECULE
IMPHY006559
 29 28 0 0 0
SMALL
GASTEIGER

@<TRIPOS>ATOM
      1 O           2.5369   -0.8660    0.0000 O.3     1  UNL1       -0.3848
      2 C           4.2690    0.1340    0.0000 C.3     1  UNL1       -0.0204
      3 C           3.4030   -0.3660    0.0000 C.3     1  UNL1        0.0811
      4 C           5.1350   -0.3660    0.0000 C.3     1  UNL1       -0.0465
      5 C           6.0010    0.1340    0.0000 C.3     1  UNL1       -0.0322
      6 C           3.9030   -1.2320    0.0000 C.3     1  UNL1       -0.0325
      7 C           2.9030    0.5000    0.0000 C.2     1  UNL1       -0.0602
      8 C           6.8671   -0.3660    0.0000 C.2     1  UNL1       -0.0797
      9 C           7.7331    0.1340    0.0000 C.3     1  UNL1       -0.0440
     10 C           3.4030    1.3660    0.0000 C.2     1  UNL1       -0.1000
     11 C           6.8671   -1.3660    0.0000 C.2     1  UNL1       -0.0997
     12 H           4.6675    0.6089    0.0000 H       1  UNL1        0.0296
     13 H           3.8705    0.6089    0.0000 H       1  UNL1        0.0296
     14 H           4.7365   -0.8410    0.0000 H       1  UNL1        0.0269
     15 H           5.5335   -0.8410    0.0000 H       1  UNL1        0.0269
     16 H           6.3996    0.6089    0.0000 H       1  UNL1        0.0310
     17 H           5.6025    0.6089    0.0000 H       1  UNL1        0.0310
     18 H           3.3660   -1.5420    0.0000 H       1  UNL1        0.0260
     19 H           4.2130   -1.7690    0.0000 H       1  UNL1        0.0260
     20 H           4.4399   -0.9221    0.0000 H       1  UNL1        0.0260
     21 H           2.2830    0.5000    0.0000 H       1  UNL1        0.0594
     22 H           2.0000   -0.5560    0.0000 H       1  UNL1        0.2106
     23 H           8.0431   -0.4030    0.0000 H       1  UNL1        0.0274
     24 H           8.2700    0.4440    0.0000 H       1  UNL1        0.0274
     25 H           7.4231    0.6709    0.0000 H       1  UNL1        0.0274
     26 H           4.0230    1.3660    0.0000 H       1  UNL1        0.0533
     27 H           3.0930    1.9030    0.0000 H       1  UNL1        0.0533
     28 H           6.3301   -1.6760    0.0000 H       1  UNL1        0.0534
     29 H           7.4040   -1.6760    0.0000 H       1  UNL1        0.0534
@<TRIPOS>BOND
     1     1     3    1
     2     1    22    1
     3     2     3    1
     4     2     4    1
     5     2    12    1
     6     2    13    1
     7     3     6    1
     8     3     7    1
     9     4     5    1
    10     4    14    1
    11     4    15    1
    12     5     8    1
    13     5    16    1
    14     5    17    1
    15     6    18    1
    16     6    19    1
    17     6    20    1
    18     7    10    2
    19     7    21    1
    20     8     9    1
    21     8    11    2
    22     9    23    1
    23     9    24    1
    24     9    25    1
    25    10    26    1
    26    10    27    1
    27    11    28    1
    28    11    29    1
