@<TRIPOS>MOLECULE
IMPHY016982
 29 28 0 0 0
SMALL
GASTEIGER

@<TRIPOS>ATOM
      1 O           2.5369    0.4400    0.0000 O.3     1  UNL1       -0.3910
      2 C           6.8671   -0.0600    0.0000 C.3     1  UNL1       -0.0457
      3 C           6.0010    0.4400    0.0000 C.3     1  UNL1       -0.0316
      4 C           7.7331    0.4400    0.0000 C.3     1  UNL1       -0.0320
      5 C           5.1350   -0.0600    0.0000 C.2     1  UNL1       -0.0744
      6 C           8.5991   -0.0600    0.0000 C.2     1  UNL1       -0.0797
      7 C           5.1350   -1.0600    0.0000 C.3     1  UNL1       -0.0437
      8 C           4.2690    0.4400    0.0000 C.2     1  UNL1       -0.0600
      9 C           9.4651    0.4400    0.0000 C.3     1  UNL1       -0.0440
     10 C           3.4030   -0.0600    0.0000 C.3     1  UNL1        0.0626
     11 C           8.5991   -1.0600    0.0000 C.2     1  UNL1       -0.0997
     12 H           6.4685   -0.5349    0.0000 H       1  UNL1        0.0271
     13 H           7.2656   -0.5349    0.0000 H       1  UNL1        0.0271
     14 H           6.3996    0.9149    0.0000 H       1  UNL1        0.0310
     15 H           5.6025    0.9149    0.0000 H       1  UNL1        0.0310
     16 H           8.1316    0.9149    0.0000 H       1  UNL1        0.0310
     17 H           7.3346    0.9149    0.0000 H       1  UNL1        0.0310
     18 H           4.5150   -1.0600    0.0000 H       1  UNL1        0.0274
     19 H           5.1350   -1.6800    0.0000 H       1  UNL1        0.0274
     20 H           5.7550   -1.0600    0.0000 H       1  UNL1        0.0274
     21 H           4.2690    1.0600    0.0000 H       1  UNL1        0.0594
     22 H           9.7751   -0.0969    0.0000 H       1  UNL1        0.0274
     23 H          10.0021    0.7500    0.0000 H       1  UNL1        0.0274
     24 H           9.1551    0.9769    0.0000 H       1  UNL1        0.0274
     25 H           3.0044   -0.5349    0.0000 H       1  UNL1        0.0601
     26 H           3.8015   -0.5349    0.0000 H       1  UNL1        0.0601
     27 H           8.0622   -1.3700    0.0000 H       1  UNL1        0.0534
     28 H           9.1360   -1.3700    0.0000 H       1  UNL1        0.0534
     29 H           2.0000    0.1300    0.0000 H       1  UNL1        0.2098
@<TRIPOS>BOND
     1     1    10    1
     2     1    29    1
     3     2     3    1
     4     2     4    1
     5     2    12    1
     6     2    13    1
     7     3     5    1
     8     3    14    1
     9     3    15    1
    10     4     6    1
    11     4    16    1
    12     4    17    1
    13     5     7    1
    14     5     8    2
    15     6     9    1
    16     6    11    2
    17     7    18    1
    18     7    19    1
    19     7    20    1
    20     8    10    1
    21     8    21    1
    22     9    22    1
    23     9    23    1
    24     9    24    1
    25    10    25    1
    26    10    26    1
    27    11    27    1
    28    11    28    1
