@<TRIPOS>MOLECULE
IMPHY010744
 17 18 0 0 0
SMALL
GASTEIGER

@<TRIPOS>ATOM
      1 O           8.1424   -1.3047    0.0000 O.2     1  UNL1       -0.4188
      2 O           8.4530    1.2553    0.0000 O.3     1  UNL1       -0.4651
      3 O           9.7260   -0.5000    0.0000 O.3     1  UNL1       -0.2410
      4 O           2.8660    1.5000    0.0000 O.2     1  UNL1       -0.2913
      5 C           7.1962    0.0000    0.0000 C.ar    1  UNL1        0.0751
      6 C           7.1962   -1.0000    0.0000 C.ar    1  UNL1        0.1519
      7 C           8.1424    0.3047    0.0000 C.ar    1  UNL1        0.2174
      8 C           6.3301    0.5000    0.0000 C.ar    1  UNL1        0.0063
      9 C           5.4641    0.0000    0.0000 C.ar    1  UNL1        0.0004
     10 C           6.3301   -1.5000    0.0000 C.ar    1  UNL1        0.0377
     11 C           5.4641   -1.0000    0.0000 C.ar    1  UNL1        0.0031
     12 C           8.7260   -0.5000    0.0000 C.ar    1  UNL1        0.3803
     13 C           4.5981    0.5000    0.0000 C.2     1  UNL1        0.0029
     14 C           3.7321    0.0000    0.0000 C.2     1  UNL1        0.0375
     15 C           9.4315    1.4615    0.0000 C.3     1  UNL1        0.2528
     16 C           2.8660    0.5000    0.0000 C.2     1  UNL1        0.1736
     17 C           2.0000    0.0000    0.0000 C.3     1  UNL1        0.0773
@<TRIPOS>BOND
     1     1     6   ar
     2     1    12   ar
     3     2     7    1
     4     2    15    1
     5     3    12    1
     6     4    16    2
     7     5     6   ar
     8     5     7   ar
     9     5     8   ar
    10     6    10   ar
    11     7    12   ar
    12     8     9   ar
    13     9    11   ar
    14     9    13    1
    15    10    11   ar
    16    13    14    2
    17    14    16    1
    18    16    17    1
