@<TRIPOS>MOLECULE
IMPHY005190
 31 31 0 0 0
SMALL
GASTEIGER

@<TRIPOS>ATOM
      1 O           2.8660   -3.0950    0.0000 O.3     1  UNL1       -0.5068
      2 N           3.7320    2.4050    0.0000 N.4     1  UNL1        0.2371
      3 C           3.7320    1.4050    0.0000 C.3     1  UNL1       -0.0268
      4 C           2.8660    0.9050    0.0000 C.3     1  UNL1        0.0127
      5 C           3.7320    3.4050    0.0000 C.3     1  UNL1       -0.0418
      6 C           4.7320    2.4050    0.0000 C.3     1  UNL1       -0.0418
      7 C           2.7320    2.4050    0.0000 C.3     1  UNL1       -0.0418
      8 C           2.8660   -0.0950    0.0000 C.ar    1  UNL1       -0.0421
      9 C           2.0000   -0.5950    0.0000 C.ar    1  UNL1       -0.0549
     10 C           3.7320   -0.5950    0.0000 C.ar    1  UNL1       -0.0549
     11 C           2.0000   -1.5950    0.0000 C.ar    1  UNL1       -0.0199
     12 C           3.7320   -1.5950    0.0000 C.ar    1  UNL1       -0.0199
     13 C           2.8660   -2.0950    0.0000 C.ar    1  UNL1        0.1169
     14 H           3.9441    0.8224    0.0000 H       1  UNL1        0.0818
     15 H           4.3426    1.5127    0.0000 H       1  UNL1        0.0818
     16 H           2.6540    1.4876    0.0000 H       1  UNL1        0.0365
     17 H           2.2554    0.7973    0.0000 H       1  UNL1        0.0365
     18 H           4.3520    3.4050    0.0000 H       1  UNL1        0.0778
     19 H           2.7320    3.0250    0.0000 H       1  UNL1        0.0778
     20 H           2.1120    2.4050    0.0000 H       1  UNL1        0.0778
     21 H           2.7320    1.7850    0.0000 H       1  UNL1        0.0778
     22 H           4.7320    1.7850    0.0000 H       1  UNL1        0.0778
     23 H           5.3520    2.4050    0.0000 H       1  UNL1        0.0778
     24 H           4.7320    3.0250    0.0000 H       1  UNL1        0.0778
     25 H           3.7320    4.0250    0.0000 H       1  UNL1        0.0778
     26 H           3.1120    3.4050    0.0000 H       1  UNL1        0.0778
     27 H           1.4631   -0.2850    0.0000 H       1  UNL1        0.0621
     28 H           4.2690   -0.2850    0.0000 H       1  UNL1        0.0621
     29 H           1.4631   -1.9050    0.0000 H       1  UNL1        0.0654
     30 H           4.2690   -1.9050    0.0000 H       1  UNL1        0.0654
     31 H           2.3291   -3.4050    0.0000 H       1  UNL1        0.2921
@<TRIPOS>UNITY_ATOM_ATTR
2 1
charge 1
@<TRIPOS>BOND
     1     1    13    1
     2     1    31    1
     3     2     3    1
     4     2     5    1
     5     2     6    1
     6     2     7    1
     7     3     4    1
     8     3    14    1
     9     3    15    1
    10     4     8    1
    11     4    16    1
    12     4    17    1
    13     5    18    1
    14     5    25    1
    15     5    26    1
    16     6    22    1
    17     6    23    1
    18     6    24    1
    19     7    19    1
    20     7    20    1
    21     7    21    1
    22     8     9   ar
    23     8    10   ar
    24     9    11   ar
    25     9    27    1
    26    10    12   ar
    27    10    28    1
    28    11    13   ar
    29    11    29    1
    30    12    13   ar
    31    12    30    1
