@<TRIPOS>MOLECULE
IMPHY016454
 14 14 0 0 0
SMALL
GASTEIGER

@<TRIPOS>ATOM
      1 S           4.5032   -0.7694    0.0000 S.2     1  UNL1       -0.0804
      2 N           5.0032    0.7694    0.0000 N.ar    1  UNL1       -0.2554
      3 C           2.7431   -0.4907    0.0000 C.3     1  UNL1       -0.0228
      4 C           3.6942   -0.1816    0.0000 C.ar    1  UNL1        0.0090
      5 C           2.0000    0.1785    0.0000 C.3     1  UNL1       -0.0607
      6 C           4.0032    0.7694    0.0000 C.ar    1  UNL1        0.0379
      7 C           5.3122   -0.1816    0.0000 C.ar    1  UNL1        0.0649
      8 H           2.2546   -0.8724    0.0000 H       1  UNL1        0.0316
      9 H           3.0342   -1.0381    0.0000 H       1  UNL1        0.0316
     10 H           2.4149    0.6392    0.0000 H       1  UNL1        0.0233
     11 H           1.5392    0.5933    0.0000 H       1  UNL1        0.0233
     12 H           1.5851   -0.2823    0.0000 H       1  UNL1        0.0233
     13 H           3.6388    1.2710    0.0000 H       1  UNL1        0.0838
     14 H           5.9019   -0.3732    0.0000 H       1  UNL1        0.0907
@<TRIPOS>BOND
     1     1     4   ar
     2     1     7   ar
     3     2     6   ar
     4     2     7   ar
     5     3     4    1
     6     3     5    1
     7     3     8    1
     8     3     9    1
     9     4     6   ar
    10     5    10    1
    11     5    11    1
    12     5    12    1
    13     6    13    1
    14     7    14    1
