@<TRIPOS>MOLECULE
IMPHY017029
 29 28 0 0 0
SMALL
GASTEIGER

@<TRIPOS>ATOM
      1 S           5.4641    0.2500    0.0000 S.3     1  UNL1       -0.0818
      2 S           7.1962    0.2500    0.0000 S.3     1  UNL1       -0.0818
      3 S           6.3301   -0.2500    0.0000 S.3     1  UNL1       -0.0242
      4 C           3.7320    0.2500    0.0000 C.3     1  UNL1       -0.0434
      5 C           8.9282    0.2500    0.0000 C.3     1  UNL1       -0.0434
      6 C           2.8660   -0.2500    0.0000 C.3     1  UNL1       -0.0551
      7 C           9.7942   -0.2500    0.0000 C.3     1  UNL1       -0.0551
      8 C           4.5981   -0.2500    0.0000 C.3     1  UNL1        0.0047
      9 C           8.0622   -0.2500    0.0000 C.3     1  UNL1        0.0047
     10 C           2.0000    0.2500    0.0000 C.3     1  UNL1       -0.0653
     11 C          10.6603    0.2500    0.0000 C.3     1  UNL1       -0.0653
     12 H           4.1306    0.7249    0.0000 H       1  UNL1        0.0273
     13 H           3.3335    0.7249    0.0000 H       1  UNL1        0.0273
     14 H           9.3267    0.7249    0.0000 H       1  UNL1        0.0273
     15 H           8.5297    0.7249    0.0000 H       1  UNL1        0.0273
     16 H           2.4675   -0.7249    0.0000 H       1  UNL1        0.0263
     17 H           3.2646   -0.7249    0.0000 H       1  UNL1        0.0263
     18 H           9.3957   -0.7249    0.0000 H       1  UNL1        0.0263
     19 H          10.1928   -0.7249    0.0000 H       1  UNL1        0.0263
     20 H           4.1996   -0.7249    0.0000 H       1  UNL1        0.0385
     21 H           4.9966   -0.7249    0.0000 H       1  UNL1        0.0385
     22 H           7.6636   -0.7249    0.0000 H       1  UNL1        0.0385
     23 H           8.4607   -0.7249    0.0000 H       1  UNL1        0.0385
     24 H           2.3100    0.7869    0.0000 H       1  UNL1        0.0230
     25 H           1.4631    0.5600    0.0000 H       1  UNL1        0.0230
     26 H           1.6900   -0.2869    0.0000 H       1  UNL1        0.0230
     27 H          10.9703   -0.2869    0.0000 H       1  UNL1        0.0230
     28 H          11.1972    0.5600    0.0000 H       1  UNL1        0.0230
     29 H          10.3503    0.7869    0.0000 H       1  UNL1        0.0230
@<TRIPOS>BOND
     1     1     3    1
     2     1     8    1
     3     2     3    1
     4     2     9    1
     5     4     6    1
     6     4     8    1
     7     4    12    1
     8     4    13    1
     9     5     7    1
    10     5     9    1
    11     5    14    1
    12     5    15    1
    13     6    10    1
    14     6    16    1
    15     6    17    1
    16     7    11    1
    17     7    18    1
    18     7    19    1
    19     8    20    1
    20     8    21    1
    21     9    22    1
    22     9    23    1
    23    10    24    1
    24    10    25    1
    25    10    26    1
    26    11    27    1
    27    11    28    1
    28    11    29    1
