@<TRIPOS>MOLECULE
IMPHY017112
 37 37 0 0 0
SMALL
GASTEIGER

@<TRIPOS>ATOM
      1 O           5.5981   -2.5000    0.0000 O.3     1  UNL1       -0.3875
      2 O           5.5981    2.5000    0.0000 O.3     1  UNL1       -0.3880
      3 C           3.0000   -1.0000    0.0000 C.3     1  UNL1       -0.0097
      4 C           3.0000   -2.0000    0.0000 C.3     1  UNL1       -0.0412
      5 C           3.8660   -2.5000    0.0000 C.3     1  UNL1       -0.0222
      6 C           3.8660   -0.5000    0.0000 C.2     1  UNL1       -0.0405
      7 C           4.7320   -2.0000    0.0000 C.3     1  UNL1        0.0766
      8 C           4.7320   -1.0000    0.0000 C.2     1  UNL1       -0.0409
      9 C           2.0000   -1.0000    0.0000 C.3     1  UNL1       -0.0558
     10 C           2.5000   -0.1340    0.0000 C.3     1  UNL1       -0.0558
     11 C           3.8660    0.5000    0.0000 C.2     1  UNL1       -0.0596
     12 C           5.5981   -0.5000    0.0000 C.3     1  UNL1       -0.0408
     13 C           4.7320    1.0000    0.0000 C.2     1  UNL1       -0.0559
     14 C           4.7320    2.0000    0.0000 C.3     1  UNL1        0.0708
     15 C           3.8660    2.5000    0.0000 C.3     1  UNL1       -0.0353
     16 H           2.3894   -1.8923    0.0000 H       1  UNL1        0.0274
     17 H           2.7880   -2.5826    0.0000 H       1  UNL1        0.0274
     18 H           3.4675   -2.9750    0.0000 H       1  UNL1        0.0294
     19 H           4.2646   -2.9750    0.0000 H       1  UNL1        0.0294
     20 H           4.7320   -2.6200    0.0000 H       1  UNL1        0.0640
     21 H           2.0000   -0.3800    0.0000 H       1  UNL1        0.0238
     22 H           1.3800   -1.0000    0.0000 H       1  UNL1        0.0238
     23 H           2.0000   -1.6200    0.0000 H       1  UNL1        0.0238
     24 H           3.0369    0.1760    0.0000 H       1  UNL1        0.0238
     25 H           2.1900    0.4030    0.0000 H       1  UNL1        0.0238
     26 H           1.9631   -0.4440    0.0000 H       1  UNL1        0.0238
     27 H           3.3291    0.8100    0.0000 H       1  UNL1        0.0618
     28 H           5.9081   -1.0369    0.0000 H       1  UNL1        0.0275
     29 H           6.1350   -0.1900    0.0000 H       1  UNL1        0.0275
     30 H           5.2881    0.0369    0.0000 H       1  UNL1        0.0275
     31 H           5.5981   -3.1200    0.0000 H       1  UNL1        0.2102
     32 H           5.2690    0.6900    0.0000 H       1  UNL1        0.0597
     33 H           4.7320    2.6200    0.0000 H       1  UNL1        0.0635
     34 H           4.1760    3.0369    0.0000 H       1  UNL1        0.0258
     35 H           3.3291    2.8100    0.0000 H       1  UNL1        0.0258
     36 H           3.5560    1.9631    0.0000 H       1  UNL1        0.0258
     37 H           5.5981    3.1200    0.0000 H       1  UNL1        0.2102
@<TRIPOS>BOND
     1     1     7    1
     2     1    31    1
     3     2    14    1
     4     2    37    1
     5     3     4    1
     6     3     6    1
     7     3     9    1
     8     3    10    1
     9     4     5    1
    10     4    16    1
    11     4    17    1
    12     5     7    1
    13     5    18    1
    14     5    19    1
    15     6     8    2
    16     6    11    1
    17     7     8    1
    18     7    20    1
    19     8    12    1
    20     9    21    1
    21     9    22    1
    22     9    23    1
    23    10    24    1
    24    10    25    1
    25    10    26    1
    26    11    13    2
    27    11    27    1
    28    12    28    1
    29    12    29    1
    30    12    30    1
    31    13    14    1
    32    13    32    1
    33    14    15    1
    34    14    33    1
    35    15    34    1
    36    15    35    1
    37    15    36    1
