@<TRIPOS>MOLECULE
IMPHY007312
 68 75 0 0 0
SMALL
GASTEIGER

@<TRIPOS>ATOM
      1 O           6.9527   -2.7362    0.0000 O.3     1  UNL1       -0.4463
      2 O           6.0427   -1.2294    0.0000 O.3     1  UNL1       -0.4463
      3 O           2.5405   -1.2325    0.0000 O.3     1  UNL1       -0.5063
      4 O           7.7748   -3.2294    0.0000 O.3     1  UNL1       -0.5061
      5 O           8.7850   -5.8874    0.0000 O.3     1  UNL1       -0.5066
      6 O           3.4961    2.4266    0.0000 O.2     1  UNL1       -0.4547
      7 O           9.5068   -0.2294    0.0000 O.3     1  UNL1       -0.5066
      8 O           3.3145    5.9716    0.0000 O.3     1  UNL1       -0.5066
      9 C           5.1767   -2.7294    0.0000 C.3     1  UNL1        0.0588
     10 C           5.1606   -3.7709    0.0000 C.3     1  UNL1        0.0024
     11 C           4.3107   -2.2294    0.0000 C.3     1  UNL1        0.0202
     12 C           6.0427   -2.2294    0.0000 C.3     1  UNL1        0.2877
     13 C           4.2835   -4.2336    0.0000 C.3     1  UNL1       -0.0245
     14 C           6.0587   -4.2986    0.0000 C.ar    1  UNL1       -0.0014
     15 C           4.3107   -1.2294    0.0000 C.ar    1  UNL1        0.0431
     16 C           3.4512   -2.7241    0.0000 C.2     1  UNL1       -0.0768
     17 C           3.4378   -3.7157    0.0000 C.2     1  UNL1       -0.0754
     18 C           6.9088   -1.7294    0.0000 C.ar    1  UNL1        0.0778
     19 C           6.9608   -3.7778    0.0000 C.ar    1  UNL1        0.1326
     20 C           5.1767   -0.7294    0.0000 C.ar    1  UNL1        0.1335
     21 C           3.4007   -0.7225    0.0000 C.ar    1  UNL1        0.1248
     22 C           6.0420   -5.3835    0.0000 C.ar    1  UNL1       -0.0514
     23 C           2.5621   -4.1986    0.0000 C.3     1  UNL1       -0.0438
     24 C           5.1928    0.3122    0.0000 C.ar    1  UNL1       -0.0086
     25 C           7.9086   -4.3058    0.0000 C.ar    1  UNL1        0.0220
     26 C           7.7748   -2.2294    0.0000 C.ar    1  UNL1        0.1309
     27 C           6.9088   -0.7294    0.0000 C.ar    1  UNL1       -0.0442
     28 C           3.3926    0.3191    0.0000 C.ar    1  UNL1       -0.0090
     29 C           4.2947    0.8399    0.0000 C.ar    1  UNL1        0.0242
     30 C           6.9774   -5.9332    0.0000 C.ar    1  UNL1       -0.0197
     31 C           7.9170   -5.3907    0.0000 C.ar    1  UNL1        0.1204
     32 C           8.6408   -1.7294    0.0000 C.ar    1  UNL1        0.0218
     33 C           7.7748   -0.2294    0.0000 C.ar    1  UNL1       -0.0194
     34 C           8.6408   -0.7294    0.0000 C.ar    1  UNL1        0.1203
     35 C           4.2986    1.8399    0.0000 C.ar    1  UNL1        0.1365
     36 C           5.1056    2.4204    0.0000 C.ar    1  UNL1       -0.0081
     37 C           4.8045    3.3678    0.0000 C.ar    1  UNL1        0.0210
     38 C           3.8045    3.3716    0.0000 C.ar    1  UNL1        0.1391
     39 C           5.3078    4.2319    0.0000 C.ar    1  UNL1       -0.0475
     40 C           3.3078    4.2396    0.0000 C.ar    1  UNL1        0.0227
     41 C           4.8111    5.0998    0.0000 C.ar    1  UNL1       -0.0194
     42 C           3.8112    5.1037    0.0000 C.ar    1  UNL1        0.1204
     43 H           5.9128   -3.1544    0.0000 H       1  UNL1        0.0395
     44 H           5.1412   -4.6206    0.0000 H       1  UNL1        0.0359
     45 H           3.5748   -1.8039    0.0000 H       1  UNL1        0.0399
     46 H           3.8710   -4.6964    0.0000 H       1  UNL1        0.0316
     47 H           4.6657   -4.7218    0.0000 H       1  UNL1        0.0316
     48 H           2.9166   -2.4102    0.0000 H       1  UNL1        0.0578
     49 H           5.5015   -5.6872    0.0000 H       1  UNL1        0.0623
     50 H           2.2627   -3.6557    0.0000 H       1  UNL1        0.0274
     51 H           2.0191   -4.4980    0.0000 H       1  UNL1        0.0274
     52 H           2.8614   -4.7415    0.0000 H       1  UNL1        0.0274
     53 H           5.7332    0.6159    0.0000 H       1  UNL1        0.0661
     54 H           8.4420   -3.9896    0.0000 H       1  UNL1        0.0691
     55 H           6.3718   -0.4194    0.0000 H       1  UNL1        0.0625
     56 H           2.8545    0.6270    0.0000 H       1  UNL1        0.0661
     57 H           6.9750   -6.5532    0.0000 H       1  UNL1        0.0654
     58 H           9.1777   -2.0394    0.0000 H       1  UNL1        0.0691
     59 H           7.7748    0.3906    0.0000 H       1  UNL1        0.0654
     60 H           2.0000   -0.9287    0.0000 H       1  UNL1        0.2921
     61 H           8.3117   -3.5394    0.0000 H       1  UNL1        0.2922
     62 H           8.7873   -6.5074    0.0000 H       1  UNL1        0.2921
     63 H           5.6941    2.2255    0.0000 H       1  UNL1        0.0661
     64 H          10.0438   -0.5394    0.0000 H       1  UNL1        0.2921
     65 H           5.9278    4.2295    0.0000 H       1  UNL1        0.0626
     66 H           2.6878    4.2420    0.0000 H       1  UNL1        0.0691
     67 H           5.1232    5.6356    0.0000 H       1  UNL1        0.0654
     68 H           3.6266    6.5074    0.0000 H       1  UNL1        0.2921
@<TRIPOS>BOND
     1     1    12    1
     2     1    19    1
     3     2    12    1
     4     2    20    1
     5     3    21    1
     6     3    60    1
     7     4    26    1
     8     4    61    1
     9     5    31    1
    10     5    62    1
    11     6    35   ar
    12     6    38   ar
    13     7    34    1
    14     7    64    1
    15     8    42    1
    16     8    68    1
    17     9    10    1
    18     9    11    1
    19     9    12    1
    20     9    43    1
    21    10    13    1
    22    10    14    1
    23    10    44    1
    24    11    15    1
    25    11    16    1
    26    11    45    1
    27    12    18    1
    28    13    17    1
    29    13    46    1
    30    13    47    1
    31    14    19   ar
    32    14    22   ar
    33    15    20   ar
    34    15    21   ar
    35    16    17    2
    36    16    48    1
    37    17    23    1
    38    18    26   ar
    39    18    27   ar
    40    19    25   ar
    41    20    24   ar
    42    21    28   ar
    43    22    30   ar
    44    22    49    1
    45    23    50    1
    46    23    51    1
    47    23    52    1
    48    24    29   ar
    49    24    53    1
    50    25    31   ar
    51    25    54    1
    52    26    32   ar
    53    27    33   ar
    54    27    55    1
    55    28    29   ar
    56    28    56    1
    57    29    35    1
    58    30    31   ar
    59    30    57    1
    60    32    34   ar
    61    32    58    1
    62    33    34   ar
    63    33    59    1
    64    35    36   ar
    65    36    37   ar
    66    36    63    1
    67    37    38   ar
    68    37    39   ar
    69    38    40   ar
    70    39    41   ar
    71    39    65    1
    72    40    42   ar
    73    40    66    1
    74    41    42   ar
    75    41    67    1
