@<TRIPOS>MOLECULE
IMPHY009198
 63 66 0 0 0
SMALL
GASTEIGER

@<TRIPOS>ATOM
      1 O           4.7166    2.1042    0.0000 O.3     1  UNL1       -0.4565
      2 O           8.6500   -2.8948    0.0000 O.3     1  UNL1       -0.4525
      3 O           7.1011   -3.5364    0.0000 O.3     1  UNL1       -0.4489
      4 O           5.4506   -2.5308    0.0000 O.3     1  UNL1       -0.4907
      5 O           4.8576   -2.2852    0.0000 O.3     1  UNL1       -0.4907
      6 O           2.3791   -0.0621    0.0000 O.3     1  UNL1       -0.4913
      7 O           3.1630   -1.9544    0.0000 O.3     1  UNL1       -0.4885
      8 O           5.9413    3.3289    0.0000 O.2     1  UNL1       -0.2511
      9 C           6.3476    1.7798    0.0000 C.3     1  UNL1        0.0005
     10 C           7.2714    1.3971    0.0000 C.3     1  UNL1       -0.0336
     11 C           5.4237    1.3971    0.0000 C.3     1  UNL1        0.1316
     12 C           7.6541    0.4732    0.0000 C.3     1  UNL1       -0.0239
     13 C           5.0410    0.4732    0.0000 C.ar    1  UNL1        0.0080
     14 C           7.2714   -0.4507    0.0000 C.ar    1  UNL1       -0.0321
     15 C           6.3476    2.7798    0.0000 C.3     1  UNL1       -0.0585
     16 C           5.4237   -0.4507    0.0000 C.ar    1  UNL1        0.0382
     17 C           6.3476   -0.8334    0.0000 C.ar    1  UNL1        0.0348
     18 C           7.9786    2.1042    0.0000 C.3     1  UNL1       -0.0617
     19 C           8.1075   -1.0720    0.0000 C.ar    1  UNL1       -0.0121
     20 C           4.0105    0.6251    0.0000 C.ar    1  UNL1       -0.0088
     21 C           6.1957   -1.8639    0.0000 C.ar    1  UNL1        0.1734
     22 C           4.8024   -1.2867    0.0000 C.ar    1  UNL1        0.1733
     23 C           7.9795   -2.1057    0.0000 C.ar    1  UNL1        0.1702
     24 C           7.0172   -2.5043    0.0000 C.ar    1  UNL1        0.2081
     25 C           3.3700   -0.1964    0.0000 C.ar    1  UNL1        0.1656
     26 C           3.7687   -1.1587    0.0000 C.ar    1  UNL1        0.2041
     27 C           4.9754    3.0701    0.0000 C.2     1  UNL1        0.3045
     28 C           8.1082   -3.7772    0.0000 C.3     1  UNL1        0.2334
     29 C           4.2683    3.7772    0.0000 C.3     1  UNL1        0.0333
     30 C           5.6558   -3.5096    0.0000 C.3     1  UNL1        0.0790
     31 C           4.0205   -2.8323    0.0000 C.3     1  UNL1        0.0790
     32 C           2.0000    0.8633    0.0000 C.3     1  UNL1        0.0790
     33 C           2.1710   -1.8277    0.0000 C.3     1  UNL1        0.0791
     34 H           6.8631    2.1242    0.0000 H       1  UNL1        0.0340
     35 H           7.8795    1.2761    0.0000 H       1  UNL1        0.0305
     36 H           4.8156    1.2761    0.0000 H       1  UNL1        0.0788
     37 H           8.1460    0.0958    0.0000 H       1  UNL1        0.0316
     38 H           8.1460    0.8506    0.0000 H       1  UNL1        0.0316
     39 H           6.9676    2.7798    0.0000 H       1  UNL1        0.0234
     40 H           6.3476    3.3998    0.0000 H       1  UNL1        0.0234
     41 H           5.7276    2.7798    0.0000 H       1  UNL1        0.0234
     42 H           8.4170    1.6658    0.0000 H       1  UNL1        0.0233
     43 H           8.4170    2.5426    0.0000 H       1  UNL1        0.0233
     44 H           7.5402    2.5426    0.0000 H       1  UNL1        0.0233
     45 H           8.6775   -0.8281    0.0000 H       1  UNL1        0.0658
     46 H           3.7799    1.2006    0.0000 H       1  UNL1        0.0659
     47 H           7.9014   -4.3617    0.0000 H       1  UNL1        0.1166
     48 H           8.6677   -4.0443    0.0000 H       1  UNL1        0.1166
     49 H           4.7067    4.2156    0.0000 H       1  UNL1        0.0342
     50 H           3.8299    4.2156    0.0000 H       1  UNL1        0.0342
     51 H           3.8299    3.3388    0.0000 H       1  UNL1        0.0342
     52 H           5.0490   -3.6368    0.0000 H       1  UNL1        0.0660
     53 H           5.7830   -4.1164    0.0000 H       1  UNL1        0.0660
     54 H           6.2626   -3.3824    0.0000 H       1  UNL1        0.0660
     55 H           3.6813   -2.3133    0.0000 H       1  UNL1        0.0660
     56 H           3.5015   -3.1715    0.0000 H       1  UNL1        0.0660
     57 H           4.3597   -3.3513    0.0000 H       1  UNL1        0.0660
     58 H           2.5737    1.0984    0.0000 H       1  UNL1        0.0660
     59 H           1.7650    1.4370    0.0000 H       1  UNL1        0.0660
     60 H           1.4263    0.6282    0.0000 H       1  UNL1        0.0660
     61 H           2.2496   -1.2127    0.0000 H       1  UNL1        0.0660
     62 H           1.5560   -1.7492    0.0000 H       1  UNL1        0.0660
     63 H           2.0925   -2.4427    0.0000 H       1  UNL1        0.0660
@<TRIPOS>BOND
     1    11     1    1
     2     1    27    1
     3     2    23    1
     4     2    28    1
     5     3    24    1
     6     3    28    1
     7     4    21    1
     8     4    30    1
     9     5    22    1
    10     5    31    1
    11     6    25    1
    12     6    32    1
    13     7    26    1
    14     7    33    1
    15     8    27    2
    16     9    10    1
    17     9    11    1
    18     9    15    1
    19     9    34    1
    20    10    12    1
    21    10    18    1
    22    10    35    1
    23    11    13    1
    24    11    36    1
    25    12    14    1
    26    12    37    1
    27    12    38    1
    28    13    16   ar
    29    13    20   ar
    30    14    17   ar
    31    14    19   ar
    32    15    39    1
    33    15    40    1
    34    15    41    1
    35    16    17    1
    36    16    22   ar
    37    17    21   ar
    38    18    42    1
    39    18    43    1
    40    18    44    1
    41    19    23   ar
    42    19    45    1
    43    20    25   ar
    44    20    46    1
    45    21    24   ar
    46    22    26   ar
    47    23    24   ar
    48    25    26   ar
    49    27    29    1
    50    28    47    1
    51    28    48    1
    52    29    49    1
    53    29    50    1
    54    29    51    1
    55    30    52    1
    56    30    53    1
    57    30    54    1
    58    31    55    1
    59    31    56    1
    60    31    57    1
    61    32    58    1
    62    32    59    1
    63    32    60    1
    64    33    61    1
    65    33    62    1
    66    33    63    1
