@<TRIPOS>MOLECULE
IMPHY014161
 38 39 0 0 0
SMALL
GASTEIGER

@<TRIPOS>ATOM
      1 O           3.7320    3.1550    0.0000 O.2     1  UNL1       -0.2706
      2 O           2.8660   -4.3450    0.0000 O.3     1  UNL1       -0.5068
      3 N           5.4641    3.1550    0.0000 N.am    1  UNL1       -0.2980
      4 C           7.1962    4.1550    0.0000 C.3     1  UNL1       -0.0502
      5 C           6.3301    4.6550    0.0000 C.3     1  UNL1       -0.0371
      6 C           7.1962    3.1550    0.0000 C.3     1  UNL1       -0.0371
      7 C           5.4641    4.1550    0.0000 C.3     1  UNL1        0.0150
      8 C           6.3301    2.6550    0.0000 C.3     1  UNL1        0.0150
      9 C           4.5981    2.6550    0.0000 C.2     1  UNL1        0.2394
     10 C           4.5981    1.6550    0.0000 C.2     1  UNL1        0.0003
     11 C           3.7320    1.1550    0.0000 C.2     1  UNL1       -0.0568
     12 C           3.7320    0.1550    0.0000 C.2     1  UNL1       -0.0610
     13 C           2.8660   -0.3450    0.0000 C.2     1  UNL1       -0.0546
     14 C           2.8660   -1.3450    0.0000 C.ar    1  UNL1       -0.0248
     15 C           3.7320   -1.8450    0.0000 C.ar    1  UNL1       -0.0511
     16 C           2.0000   -1.8450    0.0000 C.ar    1  UNL1       -0.0511
     17 C           3.7320   -2.8450    0.0000 C.ar    1  UNL1       -0.0196
     18 C           2.0000   -2.8450    0.0000 C.ar    1  UNL1       -0.0196
     19 C           2.8660   -3.3450    0.0000 C.ar    1  UNL1        0.1169
     20 H           7.8067    4.0473    0.0000 H       1  UNL1        0.0266
     21 H           7.4082    4.7376    0.0000 H       1  UNL1        0.0266
     22 H           6.7287    5.1300    0.0000 H       1  UNL1        0.0280
     23 H           5.9316    5.1300    0.0000 H       1  UNL1        0.0280
     24 H           7.4082    2.5724    0.0000 H       1  UNL1        0.0280
     25 H           7.8067    3.2627    0.0000 H       1  UNL1        0.0280
     26 H           5.2520    4.7376    0.0000 H       1  UNL1        0.0464
     27 H           4.8535    4.0473    0.0000 H       1  UNL1        0.0464
     28 H           5.9316    2.1800    0.0000 H       1  UNL1        0.0464
     29 H           6.7287    2.1800    0.0000 H       1  UNL1        0.0464
     30 H           5.1350    1.3450    0.0000 H       1  UNL1        0.0669
     31 H           3.1951    1.4650    0.0000 H       1  UNL1        0.0619
     32 H           4.2690   -0.1550    0.0000 H       1  UNL1        0.0618
     33 H           2.3291   -0.0350    0.0000 H       1  UNL1        0.0623
     34 H           4.2690   -1.5350    0.0000 H       1  UNL1        0.0625
     35 H           1.4631   -1.5350    0.0000 H       1  UNL1        0.0625
     36 H           4.2690   -3.1550    0.0000 H       1  UNL1        0.0654
     37 H           1.4631   -3.1550    0.0000 H       1  UNL1        0.0654
     38 H           2.3291   -4.6550    0.0000 H       1  UNL1        0.2921
@<TRIPOS>BOND
     1     1     9    2
     2     2    19    1
     3     2    38    1
     4     3     7    1
     5     3     8    1
     6     3     9   am
     7     4     5    1
     8     4     6    1
     9     4    20    1
    10     4    21    1
    11     5     7    1
    12     5    22    1
    13     5    23    1
    14     6     8    1
    15     6    24    1
    16     6    25    1
    17     7    26    1
    18     7    27    1
    19     8    28    1
    20     8    29    1
    21     9    10    1
    22    10    11    2
    23    10    30    1
    24    11    12    1
    25    11    31    1
    26    12    13    2
    27    12    32    1
    28    13    14    1
    29    13    33    1
    30    14    15   ar
    31    14    16   ar
    32    15    17   ar
    33    15    34    1
    34    16    18   ar
    35    16    35    1
    36    17    19   ar
    37    17    36    1
    38    18    19   ar
    39    18    37    1
