@<TRIPOS>MOLECULE
IMPHY014219
 19 20 0 0 0
SMALL
GASTEIGER

@<TRIPOS>ATOM
      1 O           2.0000   -1.0000    0.0000 O.2     1  UNL1       -0.2923
      2 C           4.5981   -0.5000    0.0000 C.ar    1  UNL1       -0.0328
      3 C           3.7320   -1.0000    0.0000 C.3     1  UNL1        0.0356
      4 C           4.5981    0.5000    0.0000 C.ar    1  UNL1       -0.0213
      5 C           2.8660   -0.5000    0.0000 C.2     1  UNL1        0.1604
      6 C           5.4920   -1.0347    0.0000 C.ar    1  UNL1       -0.0576
      7 C           3.7320    1.0000    0.0000 C.2     1  UNL1       -0.0510
      8 C           5.4920    1.0347    0.0000 C.ar    1  UNL1       -0.0543
      9 C           2.8660    0.5000    0.0000 C.2     1  UNL1       -0.0183
     10 C           6.3981   -0.5208    0.0000 C.ar    1  UNL1       -0.0615
     11 C           6.3981    0.5208    0.0000 C.ar    1  UNL1       -0.0612
     12 H           3.3335   -1.4750    0.0000 H       1  UNL1        0.0394
     13 H           4.1306   -1.4750    0.0000 H       1  UNL1        0.0394
     14 H           5.4848   -1.6546    0.0000 H       1  UNL1        0.0621
     15 H           3.7320    1.6200    0.0000 H       1  UNL1        0.0625
     16 H           5.4848    1.6546    0.0000 H       1  UNL1        0.0624
     17 H           2.3291    0.8100    0.0000 H       1  UNL1        0.0653
     18 H           6.9338   -0.8329    0.0000 H       1  UNL1        0.0618
     19 H           6.9338    0.8329    0.0000 H       1  UNL1        0.0618
@<TRIPOS>BOND
     1     1     5    2
     2     2     3    1
     3     2     4   ar
     4     2     6   ar
     5     3     5    1
     6     3    12    1
     7     3    13    1
     8     4     7    1
     9     4     8   ar
    10     5     9    1
    11     6    10   ar
    12     6    14    1
    13     7     9    2
    14     7    15    1
    15     8    11   ar
    16     8    16    1
    17     9    17    1
    18    10    11   ar
    19    10    18    1
    20    11    19    1
