@<TRIPOS>MOLECULE
IMPHY012375
 62 65 0 0 0
SMALL
GASTEIGER

@<TRIPOS>ATOM
      1 O           4.6660   -3.5223    0.0000 O.3     1  UNL1       -0.4947
      2 O           2.9340   -0.5223    0.0000 O.3     1  UNL1       -0.5060
      3 O           4.6660    3.4777    0.0000 O.3     1  UNL1       -0.4944
      4 O           2.9176    3.5123    0.0000 O.3     1  UNL1       -0.4944
      5 N           7.3321   -2.0431    0.0000 N.3     1  UNL1       -0.2956
      6 C           7.3321   -1.0015    0.0000 C.3     1  UNL1        0.0119
      7 C           6.4260   -2.5570    0.0000 C.3     1  UNL1        0.0365
      8 C           6.4260   -0.4876    0.0000 C.3     1  UNL1       -0.0111
      9 C           5.5321   -1.0223    0.0000 C.ar    1  UNL1       -0.0265
     10 C           5.5321   -2.0223    0.0000 C.ar    1  UNL1        0.0151
     11 C           4.6660   -0.5223    0.0000 C.ar    1  UNL1        0.0281
     12 C           8.1962   -0.4981    0.0000 C.3     1  UNL1       -0.0492
     13 C           6.4144   -3.5569    0.0000 C.3     1  UNL1       -0.0452
     14 C           4.6660   -2.5223    0.0000 C.ar    1  UNL1        0.1285
     15 C           8.1962   -2.5464    0.0000 C.3     1  UNL1       -0.0119
     16 C           4.6660    0.4777    0.0000 C.ar    1  UNL1       -0.0032
     17 C           3.8000   -1.0223    0.0000 C.ar    1  UNL1        0.1283
     18 C           3.8000   -2.0223    0.0000 C.ar    1  UNL1        0.0225
     19 C           3.8000    0.9777    0.0000 C.ar    1  UNL1       -0.0028
     20 C           5.5321    0.9777    0.0000 C.ar    1  UNL1       -0.0386
     21 C           3.8000    1.9777    0.0000 C.ar    1  UNL1        0.0659
     22 C           5.5321    1.9777    0.0000 C.ar    1  UNL1       -0.0157
     23 C           4.6660    2.4777    0.0000 C.ar    1  UNL1        0.1316
     24 C           2.9061    0.4431    0.0000 C.ar    1  UNL1       -0.0531
     25 C           6.3981    0.4777    0.0000 C.3     1  UNL1       -0.0390
     26 C           2.9061    2.5124    0.0000 C.ar    1  UNL1        0.1313
     27 C           3.8000   -4.0223    0.0000 C.3     1  UNL1        0.0788
     28 C           2.0000    0.9569    0.0000 C.ar    1  UNL1       -0.0577
     29 C           2.0000    1.9985    0.0000 C.ar    1  UNL1       -0.0192
     30 C           5.5321    3.9777    0.0000 C.3     1  UNL1        0.0788
     31 C           2.0574    4.0223    0.0000 C.3     1  UNL1        0.0788
     32 H           7.8696   -1.3104    0.0000 H       1  UNL1        0.0463
     33 H           6.9599   -2.8721    0.0000 H       1  UNL1        0.0511
     34 H           6.8196   -0.0086    0.0000 H       1  UNL1        0.0329
     35 H           6.0214   -0.0178    0.0000 H       1  UNL1        0.0329
     36 H           8.5082   -1.0339    0.0000 H       1  UNL1        0.0245
     37 H           8.7319   -0.1861    0.0000 H       1  UNL1        0.0245
     38 H           7.8841    0.0376    0.0000 H       1  UNL1        0.0245
     39 H           5.7945   -3.5497    0.0000 H       1  UNL1        0.0248
     40 H           6.4073   -4.1768    0.0000 H       1  UNL1        0.0248
     41 H           7.0344   -3.5640    0.0000 H       1  UNL1        0.0248
     42 H           7.8841   -3.0822    0.0000 H       1  UNL1        0.0391
     43 H           8.7319   -2.8585    0.0000 H       1  UNL1        0.0391
     44 H           8.5082   -2.0107    0.0000 H       1  UNL1        0.0391
     45 H           3.2631   -2.3323    0.0000 H       1  UNL1        0.0691
     46 H           6.0690    2.2877    0.0000 H       1  UNL1        0.0657
     47 H           2.9132   -0.1769    0.0000 H       1  UNL1        0.0624
     48 H           6.0881   -0.0592    0.0000 H       1  UNL1        0.0278
     49 H           6.9350    0.1677    0.0000 H       1  UNL1        0.0278
     50 H           6.7081    1.0146    0.0000 H       1  UNL1        0.0278
     51 H           2.3970   -0.8323    0.0000 H       1  UNL1        0.2922
     52 H           3.4900   -3.4854    0.0000 H       1  UNL1        0.0660
     53 H           3.2631   -4.3323    0.0000 H       1  UNL1        0.0660
     54 H           4.1100   -4.5592    0.0000 H       1  UNL1        0.0660
     55 H           1.4643    0.6448    0.0000 H       1  UNL1        0.0619
     56 H           1.4643    2.3106    0.0000 H       1  UNL1        0.0654
     57 H           5.8421    3.4408    0.0000 H       1  UNL1        0.0660
     58 H           6.0690    4.2877    0.0000 H       1  UNL1        0.0660
     59 H           5.2221    4.5146    0.0000 H       1  UNL1        0.0660
     60 H           2.3736    4.5556    0.0000 H       1  UNL1        0.0660
     61 H           1.5241    4.3385    0.0000 H       1  UNL1        0.0660
     62 H           1.7413    3.4890    0.0000 H       1  UNL1        0.0660
@<TRIPOS>BOND
     1     1    14    1
     2     1    27    1
     3     2    17    1
     4     2    51    1
     5     3    23    1
     6     3    30    1
     7     4    26    1
     8     4    31    1
     9     5     6    1
    10     5     7    1
    11     5    15    1
    12     6     8    1
    13     6    12    1
    14     6    32    1
    15     7    10    1
    16     7    13    1
    17     7    33    1
    18     8     9    1
    19     8    34    1
    20     8    35    1
    21     9    10   ar
    22     9    11   ar
    23    10    14   ar
    24    11    16    1
    25    11    17   ar
    26    12    36    1
    27    12    37    1
    28    12    38    1
    29    13    39    1
    30    13    40    1
    31    13    41    1
    32    14    18   ar
    33    15    42    1
    34    15    43    1
    35    15    44    1
    36    16    19   ar
    37    16    20   ar
    38    17    18   ar
    39    18    45    1
    40    19    21   ar
    41    19    24   ar
    42    20    22   ar
    43    20    25    1
    44    21    23   ar
    45    21    26   ar
    46    22    23   ar
    47    22    46    1
    48    24    28   ar
    49    24    47    1
    50    25    48    1
    51    25    49    1
    52    25    50    1
    53    26    29   ar
    54    27    52    1
    55    27    53    1
    56    27    54    1
    57    28    29   ar
    58    28    55    1
    59    29    56    1
    60    30    57    1
    61    30    58    1
    62    30    59    1
    63    31    60    1
    64    31    61    1
    65    31    62    1
