@<TRIPOS>MOLECULE
IMPHY011881
 81 85 0 0 0
SMALL
GASTEIGER

@<TRIPOS>ATOM
      1 O           2.5357   -2.6574    0.0000 O.3     1  UNL1       -0.3912
      2 O          11.4608    0.4291    0.0000 O.3     1  UNL1       -0.4802
      3 O          10.6064   -1.0775    0.0000 O.2     1  UNL1       -0.2504
      4 C           7.0628   -1.1050    0.0000 C.3     1  UNL1       -0.0194
      5 C           6.1968   -0.6051    0.0000 C.3     1  UNL1       -0.0257
      6 C           5.2868   -1.1119    0.0000 C.3     1  UNL1       -0.0250
      7 C           7.9288   -0.6051    0.0000 C.3     1  UNL1       -0.0051
      8 C           5.2787   -2.1535    0.0000 C.3     1  UNL1       -0.0278
      9 C           7.0789   -2.1466    0.0000 C.3     1  UNL1       -0.0463
     10 C           7.9288    0.3949    0.0000 C.2     1  UNL1       -0.0626
     11 C           6.1808   -2.6743    0.0000 C.3     1  UNL1       -0.0486
     12 C           4.3433   -2.7032    0.0000 C.3     1  UNL1       -0.0056
     13 C           8.8228    0.9296    0.0000 C.3     1  UNL1       -0.0008
     14 C           6.1968    0.3949    0.0000 C.3     1  UNL1       -0.0306
     15 C           8.8228   -1.1397    0.0000 C.3     1  UNL1       -0.0424
     16 C           9.7288    0.4158    0.0000 C.3     1  UNL1        0.0743
     17 C           4.3599   -0.5478    0.0000 C.3     1  UNL1       -0.0447
     18 C           9.7288   -0.6259    0.0000 C.3     1  UNL1       -0.0359
     19 C           7.7056   -1.8711    0.0000 C.3     1  UNL1       -0.0585
     20 C           7.0628    0.8949    0.0000 C.2     1  UNL1       -0.0836
     21 C           3.4037   -2.1607    0.0000 C.3     1  UNL1        0.0606
     22 C           5.2945   -0.1119    0.0000 C.3     1  UNL1       -0.0590
     23 C           3.4120   -1.0758    0.0000 C.3     1  UNL1       -0.0258
     24 C           8.7977    2.0143    0.0000 C.3     1  UNL1       -0.0337
     25 C           8.2709   -1.5447    0.0000 C.3     1  UNL1       -0.0553
     26 C          10.6726    0.9510    0.0000 C.3     1  UNL1       -0.0364
     27 C           9.7288    2.5712    0.0000 C.3     1  UNL1       -0.0407
     28 C           3.8467   -3.5712    0.0000 C.3     1  UNL1       -0.0572
     29 C           4.8466   -3.5673    0.0000 C.3     1  UNL1       -0.0572
     30 C          10.6726    2.0360    0.0000 C.3     1  UNL1       -0.0492
     31 C          10.5987   -0.0775    0.0000 C.2     1  UNL1        0.3115
     32 C           7.9222    2.4975    0.0000 C.3     1  UNL1       -0.0616
     33 C           9.7173    3.5712    0.0000 C.3     1  UNL1       -0.0622
     34 H           6.9329   -0.1801    0.0000 H       1  UNL1        0.0315
     35 H           5.2820   -3.0035    0.0000 H       1  UNL1        0.0312
     36 H           7.2969   -2.7270    0.0000 H       1  UNL1        0.0271
     37 H           7.6880   -2.0311    0.0000 H       1  UNL1        0.0271
     38 H           5.7835   -3.1503    0.0000 H       1  UNL1        0.0268
     39 H           6.5818   -3.1472    0.0000 H       1  UNL1        0.0268
     40 H           8.0786    1.3404    0.0000 H       1  UNL1        0.0359
     41 H           5.9847    0.9776    0.0000 H       1  UNL1        0.0310
     42 H           5.5862    0.2873    0.0000 H       1  UNL1        0.0310
     43 H           8.4182   -1.6095    0.0000 H       1  UNL1        0.0274
     44 H           9.2164   -1.6187    0.0000 H       1  UNL1        0.0274
     45 H           4.7681   -0.0812    0.0000 H       1  UNL1        0.0271
     46 H           3.9700   -0.0658    0.0000 H       1  UNL1        0.0271
     47 H           9.9379   -1.2096    0.0000 H       1  UNL1        0.0276
     48 H          10.3397   -0.5198    0.0000 H       1  UNL1        0.0276
     49 H           7.2306   -2.2696    0.0000 H       1  UNL1        0.0235
     50 H           8.1041   -2.3460    0.0000 H       1  UNL1        0.0235
     51 H           8.1805   -1.4726    0.0000 H       1  UNL1        0.0235
     52 H           7.0628    1.5150    0.0000 H       1  UNL1        0.0572
     53 H           3.4025   -2.7807    0.0000 H       1  UNL1        0.0599
     54 H           5.9145   -0.1167    0.0000 H       1  UNL1        0.0235
     55 H           5.2993    0.5081    0.0000 H       1  UNL1        0.0235
     56 H           4.6745   -0.1071    0.0000 H       1  UNL1        0.0235
     57 H           8.2674    1.6930    0.0000 H       1  UNL1        0.0307
     58 H           3.2075   -0.4905    0.0000 H       1  UNL1        0.0290
     59 H           2.8004   -1.1771    0.0000 H       1  UNL1        0.0290
     60 H           7.6884   -1.7568    0.0000 H       1  UNL1        0.0238
     61 H           8.4830   -2.1273    0.0000 H       1  UNL1        0.0238
     62 H           8.8535   -1.3326    0.0000 H       1  UNL1        0.0238
     63 H          10.8817    0.3673    0.0000 H       1  UNL1        0.0276
     64 H          11.2835    1.0571    0.0000 H       1  UNL1        0.0276
     65 H          10.2628    2.8864    0.0000 H       1  UNL1        0.0301
     66 H           3.3085   -3.2632    0.0000 H       1  UNL1        0.0236
     67 H           4.3109   -3.8794    0.0000 H       1  UNL1        0.0236
     68 H           5.1587   -4.1030    0.0000 H       1  UNL1        0.0236
     69 H           5.3824   -3.2553    0.0000 H       1  UNL1        0.0236
     70 H           3.5387   -4.1093    0.0000 H       1  UNL1        0.0236
     71 H           4.3848   -3.8791    0.0000 H       1  UNL1        0.0236
     72 H          11.2835    1.9299    0.0000 H       1  UNL1        0.0268
     73 H          10.8817    2.6197    0.0000 H       1  UNL1        0.0268
     74 H           8.2218    3.0403    0.0000 H       1  UNL1        0.0233
     75 H           7.3794    2.7971    0.0000 H       1  UNL1        0.0233
     76 H           7.6226    1.9547    0.0000 H       1  UNL1        0.0233
     77 H           2.0000   -2.3453    0.0000 H       1  UNL1        0.2098
     78 H          10.3372    3.5783    0.0000 H       1  UNL1        0.0233
     79 H           9.7101    4.1911    0.0000 H       1  UNL1        0.0233
     80 H           9.0973    3.5640    0.0000 H       1  UNL1        0.0233
     81 H          12.0001    0.1233    0.0000 H       1  UNL1        0.2951
@<TRIPOS>BOND
     1    21     1    1
     2     1    77    1
     3     2    31    1
     4     2    81    1
     5     3    31    2
     6     4     5    1
     7     4     7    1
     8     4     9    1
     9     4    19    1
    10     5     6    1
    11     5    14    1
    12     5    34    1
    13     6     8    1
    14     6    17    1
    15     6    22    1
    16     7    10    1
    17     7    15    1
    18     7    25    1
    19     8    11    1
    20     8    12    1
    21     8    35    1
    22     9    11    1
    23     9    36    1
    24     9    37    1
    25    10    13    1
    26    10    20    2
    27    11    38    1
    28    11    39    1
    29    12    21    1
    30    12    28    1
    31    12    29    1
    32    13    16    1
    33    13    24    1
    34    13    40    1
    35    14    20    1
    36    14    41    1
    37    14    42    1
    38    15    18    1
    39    15    43    1
    40    15    44    1
    41    16    18    1
    42    16    26    1
    43    16    31    1
    44    17    23    1
    45    17    45    1
    46    17    46    1
    47    18    47    1
    48    18    48    1
    49    19    49    1
    50    19    50    1
    51    19    51    1
    52    20    52    1
    53    21    23    1
    54    21    53    1
    55    22    54    1
    56    22    55    1
    57    22    56    1
    58    23    58    1
    59    23    59    1
    60    24    27    1
    61    24    32    1
    62    24    57    1
    63    25    60    1
    64    25    61    1
    65    25    62    1
    66    26    30    1
    67    26    63    1
    68    26    64    1
    69    27    30    1
    70    27    33    1
    71    27    65    1
    72    28    66    1
    73    28    70    1
    74    28    71    1
    75    29    67    1
    76    29    68    1
    77    29    69    1
    78    30    72    1
    79    30    73    1
    80    32    74    1
    81    32    75    1
    82    32    76    1
    83    33    78    1
    84    33    79    1
    85    33    80    1
