@<TRIPOS>MOLECULE
IMPHY009475
 126 133 0 0 0
SMALL
GASTEIGER

@<TRIPOS>ATOM
      1 O           9.4982    5.0724    0.0000 O.3     1  UNL1       -0.3877
      2 O           7.7331   -0.1311    0.0000 O.3     1  UNL1       -0.3454
      3 O           5.8941    8.5861    0.0000 O.3     1  UNL1       -0.4571
      4 O           6.0010   -0.1311    0.0000 O.3     1  UNL1       -0.3431
      5 O           6.5292   10.2511    0.0000 O.2     1  UNL1       -0.2456
      6 O           7.7331   -2.1311    0.0000 O.3     1  UNL1       -0.3378
      7 O           6.0010   -3.1311    0.0000 O.3     1  UNL1       -0.3744
      8 O           4.2690   -2.1311    0.0000 O.3     1  UNL1       -0.3866
      9 O           6.8671   -3.6311    0.0000 O.3     1  UNL1       -0.3405
     10 O           9.4651   -3.1311    0.0000 O.3     1  UNL1       -0.3841
     11 O           9.4651   -5.1311    0.0000 O.3     1  UNL1       -0.3864
     12 O           7.7331   -6.1311    0.0000 O.3     1  UNL1       -0.3865
     13 O           6.0010   -6.1311    0.0000 O.3     1  UNL1       -0.3460
     14 O           5.1350   -7.6311    0.0000 O.3     1  UNL1       -0.3405
     15 O           4.2690   -5.1311    0.0000 O.3     1  UNL1       -0.3841
     16 O           2.5369   -6.1311    0.0000 O.3     1  UNL1       -0.3864
     17 O           2.5369   -8.1311    0.0000 O.3     1  UNL1       -0.3865
     18 O           3.4030   -9.6311    0.0000 O.3     1  UNL1       -0.3924
     19 C           8.6303    5.5691    0.0000 C.3     1  UNL1        0.0751
     20 C           8.6342    4.5691    0.0000 C.3     1  UNL1       -0.0083
     21 C           7.7701    4.0658    0.0000 C.3     1  UNL1       -0.0299
     22 C           7.7624    6.0658    0.0000 C.3     1  UNL1        0.0036
     23 C           7.7580    3.0242    0.0000 C.3     1  UNL1       -0.0259
     24 C           8.6581    2.4999    0.0000 C.3     1  UNL1       -0.0330
     25 C           6.9021    4.5624    0.0000 C.3     1  UNL1       -0.0488
     26 C           6.8983    5.5624    0.0000 C.3     1  UNL1       -0.0442
     27 C           7.9678    7.0384    0.0000 C.3     1  UNL1       -0.0081
     28 C           9.5461    4.0658    0.0000 C.3     1  UNL1       -0.0470
     29 C           9.3647    6.2390    0.0000 C.3     1  UNL1       -0.0226
     30 C           9.5581    3.0242    0.0000 C.3     1  UNL1       -0.0493
     31 C           8.9561    7.1452    0.0000 C.3     1  UNL1       -0.0432
     32 C           6.8081    2.4999    0.0000 C.3     1  UNL1       -0.0448
     33 C           8.6706    1.4150    0.0000 C.3     1  UNL1       -0.0232
     34 C           6.8944    6.5624    0.0000 C.3     1  UNL1       -0.0564
     35 C           6.8939    3.5275    0.0000 C.3     1  UNL1       -0.0590
     36 C           6.7956    1.4150    0.0000 C.3     1  UNL1       -0.0260
     37 C           7.7331    0.8689    0.0000 C.3     1  UNL1        0.0621
     38 C           7.2971    7.7801    0.0000 C.2     1  UNL1       -0.0222
     39 C           6.3028    7.6734    0.0000 C.3     1  UNL1        0.1147
     40 C           7.5029    8.7587    0.0000 C.2     1  UNL1        0.0252
     41 C           6.8671   -0.6311    0.0000 C.3     1  UNL1        0.1885
     42 C           6.6358    9.2568    0.0000 C.2     1  UNL1        0.3323
     43 C           6.8671   -1.6311    0.0000 C.3     1  UNL1        0.1409
     44 C           6.0010   -2.1311    0.0000 C.3     1  UNL1        0.1174
     45 C           5.1350   -0.6311    0.0000 C.3     1  UNL1        0.0873
     46 C           5.1350   -1.6311    0.0000 C.3     1  UNL1        0.1097
     47 C           4.2690   -0.1311    0.0000 C.3     1  UNL1       -0.0361
     48 C           7.7331   -3.1311    0.0000 C.3     1  UNL1        0.1885
     49 C           8.5991   -3.6311    0.0000 C.3     1  UNL1        0.1341
     50 C           5.1350   -3.6311    0.0000 C.3     1  UNL1        0.0370
     51 C           8.5991   -4.6311    0.0000 C.3     1  UNL1        0.1141
     52 C           6.8671   -4.6311    0.0000 C.3     1  UNL1        0.1134
     53 C           7.7331   -5.1311    0.0000 C.3     1  UNL1        0.1119
     54 C           6.0010   -5.1311    0.0000 C.3     1  UNL1        0.0796
     55 C           5.1350   -6.6311    0.0000 C.3     1  UNL1        0.1880
     56 C           4.2690   -6.1311    0.0000 C.3     1  UNL1        0.1341
     57 C           3.4030   -6.6311    0.0000 C.3     1  UNL1        0.1141
     58 C           4.2690   -8.1311    0.0000 C.3     1  UNL1        0.1130
     59 C           3.4030   -7.6311    0.0000 C.3     1  UNL1        0.1119
     60 C           4.2690   -9.1311    0.0000 C.3     1  UNL1        0.0730
     61 H           9.3653    5.0026    0.0000 H       1  UNL1        0.0331
     62 H           8.5045    3.6379    0.0000 H       1  UNL1        0.0310
     63 H           9.3974    2.0806    0.0000 H       1  UNL1        0.0307
     64 H           6.2911    4.6677    0.0000 H       1  UNL1        0.0268
     65 H           6.6923    3.9790    0.0000 H       1  UNL1        0.0268
     66 H           6.6840    6.1442    0.0000 H       1  UNL1        0.0272
     67 H           6.2881    5.4524    0.0000 H       1  UNL1        0.0272
     68 H           8.1885    7.6178    0.0000 H       1  UNL1        0.0353
     69 H          10.1581    3.9667    0.0000 H       1  UNL1        0.0269
     70 H           9.7484    4.6518    0.0000 H       1  UNL1        0.0269
     71 H           9.7321    5.7396    0.0000 H       1  UNL1        0.0293
     72 H           9.9000    6.5518    0.0000 H       1  UNL1        0.0293
     73 H           9.7739    2.4430    0.0000 H       1  UNL1        0.0268
     74 H          10.1677    3.1374    0.0000 H       1  UNL1        0.0268
     75 H           9.5450    7.3393    0.0000 H       1  UNL1        0.0272
     76 H           8.8251    7.7512    0.0000 H       1  UNL1        0.0272
     77 H           6.6058    3.0860    0.0000 H       1  UNL1        0.0271
     78 H           6.1961    2.4009    0.0000 H       1  UNL1        0.0271
     79 H           8.8864    0.8338    0.0000 H       1  UNL1        0.0293
     80 H           9.2802    1.5281    0.0000 H       1  UNL1        0.0293
     81 H           7.2023    7.1005    0.0000 H       1  UNL1        0.0236
     82 H           6.3563    6.8703    0.0000 H       1  UNL1        0.0236
     83 H           6.5865    6.0243    0.0000 H       1  UNL1        0.0236
     84 H           7.2060    4.0633    0.0000 H       1  UNL1        0.0235
     85 H           6.3582    3.8396    0.0000 H       1  UNL1        0.0235
     86 H           6.5818    2.9918    0.0000 H       1  UNL1        0.0235
     87 H           6.1860    1.5281    0.0000 H       1  UNL1        0.0290
     88 H           6.5798    0.8338    0.0000 H       1  UNL1        0.0290
     89 H           8.2706    0.5599    0.0000 H       1  UNL1        0.0597
     90 H          10.0340    5.3845    0.0000 H       1  UNL1        0.2102
     91 H           5.7136    7.4806    0.0000 H       1  UNL1        0.0746
     92 H           6.4330    7.0673    0.0000 H       1  UNL1        0.0746
     93 H           8.0688    9.0120    0.0000 H       1  UNL1        0.0689
     94 H           7.4040   -0.9411    0.0000 H       1  UNL1        0.0938
     95 H           6.8671   -2.2511    0.0000 H       1  UNL1        0.0675
     96 H           5.4641   -2.4411    0.0000 H       1  UNL1        0.0650
     97 H           5.1350   -0.0111    0.0000 H       1  UNL1        0.0621
     98 H           4.5981   -1.3211    0.0000 H       1  UNL1        0.0646
     99 H           4.5790    0.4058    0.0000 H       1  UNL1        0.0255
    100 H           3.7320    0.1789    0.0000 H       1  UNL1        0.0255
    101 H           3.9590   -0.6681    0.0000 H       1  UNL1        0.0255
    102 H           7.1962   -2.8211    0.0000 H       1  UNL1        0.0938
    103 H           3.7320   -1.8211    0.0000 H       1  UNL1        0.2100
    104 H           8.5991   -3.0111    0.0000 H       1  UNL1        0.0671
    105 H           4.8250   -3.0942    0.0000 H       1  UNL1        0.0524
    106 H           4.5981   -3.9411    0.0000 H       1  UNL1        0.0524
    107 H           5.4450   -4.1681    0.0000 H       1  UNL1        0.0524
    108 H           8.5991   -5.2511    0.0000 H       1  UNL1        0.0648
    109 H           6.3301   -4.3211    0.0000 H       1  UNL1        0.0647
    110 H           7.1962   -5.4411    0.0000 H       1  UNL1        0.0647
    111 H           9.4651   -2.5111    0.0000 H       1  UNL1        0.2101
    112 H           5.7890   -4.5485    0.0000 H       1  UNL1        0.0587
    113 H           5.3905   -5.2388    0.0000 H       1  UNL1        0.0587
    114 H          10.0021   -4.8211    0.0000 H       1  UNL1        0.2100
    115 H           8.2700   -6.4411    0.0000 H       1  UNL1        0.2100
    116 H           5.1350   -6.0111    0.0000 H       1  UNL1        0.0937
    117 H           3.7320   -5.8211    0.0000 H       1  UNL1        0.0671
    118 H           3.9650   -6.0111    0.0000 H       1  UNL1        0.0648
    119 H           4.8059   -8.4411    0.0000 H       1  UNL1        0.0647
    120 H           2.8660   -7.3211    0.0000 H       1  UNL1        0.0647
    121 H           4.4810   -9.7137    0.0000 H       1  UNL1        0.0584
    122 H           4.8796   -9.0235    0.0000 H       1  UNL1        0.0584
    123 H           3.7320   -4.8211    0.0000 H       1  UNL1        0.2101
    124 H           2.0000   -6.4411    0.0000 H       1  UNL1        0.2100
    125 H           2.5369   -8.7511    0.0000 H       1  UNL1        0.2100
    126 H           3.4030  -10.2511    0.0000 H       1  UNL1        0.2095
@<TRIPOS>BOND
     1    19     1    1
     2     1    90    1
     3    37     2    1
     4    41     2    1
     5     3    39    1
     6     3    42    1
     7     4    41    1
     8     4    45    1
     9     5    42    2
    10    43     6    1
    11    48     6    1
    12    44     7    1
    13     7    50    1
    14    46     8    1
    15     8   103    1
    16     9    48    1
    17     9    52    1
    18    49    10    1
    19    10   111    1
    20    51    11    1
    21    11   114    1
    22    53    12    1
    23    12   115    1
    24    13    54    1
    25    55    13    1
    26    14    55    1
    27    14    58    1
    28    56    15    1
    29    15   123    1
    30    57    16    1
    31    16   124    1
    32    59    17    1
    33    17   125    1
    34    18    60    1
    35    18   126    1
    36    19    20    1
    37    19    22    1
    38    19    29    1
    39    20    21    1
    40    20    28    1
    41    20    61    1
    42    21    23    1
    43    21    25    1
    44    21    62    1
    45    22    26    1
    46    22    27    1
    47    22    34    1
    48    23    24    1
    49    23    32    1
    50    23    35    1
    51    24    30    1
    52    24    33    1
    53    24    63    1
    54    25    26    1
    55    25    64    1
    56    25    65    1
    57    26    66    1
    58    26    67    1
    59    27    31    1
    60    27    38    1
    61    27    68    1
    62    28    30    1
    63    28    69    1
    64    28    70    1
    65    29    31    1
    66    29    71    1
    67    29    72    1
    68    30    73    1
    69    30    74    1
    70    31    75    1
    71    31    76    1
    72    32    36    1
    73    32    77    1
    74    32    78    1
    75    33    37    1
    76    33    79    1
    77    33    80    1
    78    34    81    1
    79    34    82    1
    80    34    83    1
    81    35    84    1
    82    35    85    1
    83    35    86    1
    84    36    37    1
    85    36    87    1
    86    36    88    1
    87    37    89    1
    88    38    39    1
    89    38    40    2
    90    39    91    1
    91    39    92    1
    92    40    42    1
    93    40    93    1
    94    41    43    1
    95    41    94    1
    96    43    44    1
    97    43    95    1
    98    44    46    1
    99    44    96    1
   100    45    46    1
   101    45    47    1
   102    45    97    1
   103    46    98    1
   104    47    99    1
   105    47   100    1
   106    47   101    1
   107    48    49    1
   108    48   102    1
   109    49    51    1
   110    49   104    1
   111    50   105    1
   112    50   106    1
   113    50   107    1
   114    51    53    1
   115    51   108    1
   116    52    53    1
   117    52    54    1
   118    52   109    1
   119    53   110    1
   120    54   112    1
   121    54   113    1
   122    55    56    1
   123    55   116    1
   124    56    57    1
   125    56   117    1
   126    57    59    1
   127    57   118    1
   128    58    59    1
   129    58    60    1
   130    58   119    1
   131    59   120    1
   132    60   121    1
   133    60   122    1
