@<TRIPOS>MOLECULE
IMPHY008798
 42 44 0 0 0
SMALL
GASTEIGER

@<TRIPOS>ATOM
      1 O           2.5357   -0.1161    0.0000 O.3     1  UNL1       -0.3865
      2 O           6.0037   -1.1027    0.0000 O.3     1  UNL1       -0.4892
      3 O           4.2755   -2.1094    0.0000 O.3     1  UNL1       -0.3856
      4 O          11.3460   -0.8833    0.0000 O.2     1  UNL1       -0.4449
      5 O           9.5338    1.9214    0.0000 O.3     1  UNL1       -0.4937
      6 N           9.5338   -1.0786    0.0000 N.ar    1  UNL1       -0.2117
      7 C           3.4037   -0.6127    0.0000 C.3     1  UNL1        0.0894
      8 C           4.2716   -1.1094    0.0000 C.3     1  UNL1        0.1171
      9 C           5.1357   -0.6060    0.0000 C.3     1  UNL1        0.1181
     10 C           2.9070   -1.4807    0.0000 C.3     1  UNL1       -0.0338
     11 C           3.9003    0.2552    0.0000 C.3     1  UNL1       -0.0338
     12 C           6.8678   -0.5994    0.0000 C.ar    1  UNL1        0.1227
     13 C           8.6678    0.4214    0.0000 C.ar    1  UNL1        0.0431
     14 C           8.6678   -0.5786    0.0000 C.ar    1  UNL1        0.0818
     15 C           7.7738   -1.1132    0.0000 C.ar    1  UNL1        0.0063
     16 C           9.5338    0.9214    0.0000 C.ar    1  UNL1        0.1415
     17 C          10.3998    0.4214    0.0000 C.ar    1  UNL1        0.0820
     18 C           6.8678    0.4423    0.0000 C.ar    1  UNL1       -0.0191
     19 C           7.7738    0.9561    0.0000 C.ar    1  UNL1       -0.0456
     20 C          10.3998   -0.5786    0.0000 C.ar    1  UNL1        0.2311
     21 C          11.3460    0.7262    0.0000 C.ar    1  UNL1       -0.0109
     22 C          11.9296   -0.0786    0.0000 C.ar    1  UNL1        0.0952
     23 C          10.3998    2.4214    0.0000 C.3     1  UNL1        0.0788
     24 H           4.8098   -1.4173    0.0000 H       1  UNL1        0.0656
     25 H           5.5324   -0.1296    0.0000 H       1  UNL1        0.0724
     26 H           4.7354   -0.1326    0.0000 H       1  UNL1        0.0724
     27 H           4.4385   -0.0527    0.0000 H       1  UNL1        0.0258
     28 H           2.3689   -1.1727    0.0000 H       1  UNL1        0.0258
     29 H           2.5991   -2.0188    0.0000 H       1  UNL1        0.0258
     30 H           3.4452   -1.7886    0.0000 H       1  UNL1        0.0258
     31 H           4.2083    0.7933    0.0000 H       1  UNL1        0.0258
     32 H           3.3622    0.5631    0.0000 H       1  UNL1        0.0258
     33 H           2.0000   -0.4281    0.0000 H       1  UNL1        0.2102
     34 H           3.7398   -2.4214    0.0000 H       1  UNL1        0.2100
     35 H           7.7810   -1.7332    0.0000 H       1  UNL1        0.0676
     36 H           7.7810    1.5761    0.0000 H       1  UNL1        0.0626
     37 H           6.3320    0.7543    0.0000 H       1  UNL1        0.0654
     38 H          11.5386    1.3155    0.0000 H       1  UNL1        0.0657
     39 H          12.5496   -0.0786    0.0000 H       1  UNL1        0.1030
     40 H          10.7098    1.8845    0.0000 H       1  UNL1        0.0660
     41 H          10.9368    2.7314    0.0000 H       1  UNL1        0.0660
     42 H          10.0898    2.9584    0.0000 H       1  UNL1        0.0660
@<TRIPOS>BOND
     1     1     7    1
     2     1    33    1
     3     2     9    1
     4     2    12    1
     5     3     8    1
     6     3    34    1
     7     4    20   ar
     8     4    22   ar
     9     5    16    1
    10     5    23    1
    11     6    14   ar
    12     6    20   ar
    13     7     8    1
    14     7    10    1
    15     7    11    1
    16     8     9    1
    17     8    24    1
    18     9    25    1
    19     9    26    1
    20    10    28    1
    21    10    29    1
    22    10    30    1
    23    11    27    1
    24    11    31    1
    25    11    32    1
    26    12    15   ar
    27    12    18   ar
    28    13    14   ar
    29    13    16   ar
    30    13    19   ar
    31    14    15   ar
    32    15    35    1
    33    16    17   ar
    34    17    20   ar
    35    17    21   ar
    36    18    19   ar
    37    18    37    1
    38    19    36    1
    39    21    22   ar
    40    21    38    1
    41    22    39    1
    42    23    40    1
    43    23    41    1
    44    23    42    1
