@<TRIPOS>MOLECULE
IMPHY006280
 36 38 0 0 0
SMALL
GASTEIGER

@<TRIPOS>ATOM
      1 O           5.3781   -1.8627    0.0000 O.3     1  UNL1       -0.3653
      2 O           8.2596    0.4190    0.0000 O.2     1  UNL1       -0.4674
      3 O           2.3090   -2.5350    0.0000 O.2     1  UNL1       -0.4707
      4 C           6.1871   -1.2749    0.0000 C.3     1  UNL1        0.0744
      5 C           5.8781   -0.3238    0.0000 C.3     1  UNL1       -0.0209
      6 C           4.8781   -0.3238    0.0000 C.3     1  UNL1       -0.0197
      7 C           4.5691   -1.2749    0.0000 C.3     1  UNL1        0.0873
      8 C           7.1382   -0.9659    0.0000 C.3     1  UNL1        0.0344
      9 C           6.7749   -2.0839    0.0000 C.3     1  UNL1       -0.0354
     10 C           3.6180   -1.5839    0.0000 C.ar    1  UNL1        0.0188
     11 C           7.3461    0.0123    0.0000 C.ar    1  UNL1        0.1078
     12 C           2.8090   -0.9961    0.0000 C.ar    1  UNL1       -0.0183
     13 C           3.3090   -2.5350    0.0000 C.ar    1  UNL1        0.0973
     14 C           6.6770    0.7554    0.0000 C.ar    1  UNL1       -0.0177
     15 C           7.1770    1.6214    0.0000 C.ar    1  UNL1       -0.0125
     16 C           2.0000   -1.5839    0.0000 C.ar    1  UNL1        0.0920
     17 C           8.1551    1.4135    0.0000 C.ar    1  UNL1        0.0950
     18 C           6.7702    2.5350    0.0000 C.3     1  UNL1       -0.0367
     19 H           6.4846   -0.1949    0.0000 H       1  UNL1        0.0294
     20 H           5.8133    0.2928    0.0000 H       1  UNL1        0.0294
     21 H           4.9429    0.2928    0.0000 H       1  UNL1        0.0294
     22 H           4.2717   -0.1949    0.0000 H       1  UNL1        0.0294
     23 H           4.4361   -2.1144    0.0000 H       1  UNL1        0.0647
     24 H           7.2245   -1.5798    0.0000 H       1  UNL1        0.0372
     25 H           7.7578   -0.9875    0.0000 H       1  UNL1        0.0372
     26 H           6.2733   -2.4484    0.0000 H       1  UNL1        0.0257
     27 H           7.1393   -2.5855    0.0000 H       1  UNL1        0.0257
     28 H           7.2765   -1.7195    0.0000 H       1  UNL1        0.0257
     29 H           2.8090   -0.3761    0.0000 H       1  UNL1        0.0652
     30 H           3.6734   -3.0366    0.0000 H       1  UNL1        0.1033
     31 H           6.0604    0.6906    0.0000 H       1  UNL1        0.0654
     32 H           1.4103   -1.3923    0.0000 H       1  UNL1        0.1029
     33 H           8.6159    1.8284    0.0000 H       1  UNL1        0.1032
     34 H           7.3366    2.7872    0.0000 H       1  UNL1        0.0278
     35 H           6.5180    3.1014    0.0000 H       1  UNL1        0.0278
     36 H           6.2038    2.2828    0.0000 H       1  UNL1        0.0278
@<TRIPOS>BOND
     1     1     4    1
     2     1     7    1
     3     2    11   ar
     4     2    17   ar
     5     3    13   ar
     6     3    16   ar
     7     4     5    1
     8     4     8    1
     9     4     9    1
    10     5     6    1
    11     5    19    1
    12     5    20    1
    13     6     7    1
    14     6    21    1
    15     6    22    1
    16     7    10    1
    17     7    23    1
    18     8    11    1
    19     8    24    1
    20     8    25    1
    21     9    26    1
    22     9    27    1
    23     9    28    1
    24    10    12   ar
    25    10    13   ar
    26    11    14   ar
    27    12    16   ar
    28    12    29    1
    29    13    30    1
    30    14    15   ar
    31    14    31    1
    32    15    17   ar
    33    15    18    1
    34    16    32    1
    35    17    33    1
    36    18    34    1
    37    18    35    1
    38    18    36    1
