@<TRIPOS>MOLECULE
IMPHY002713
 50 54 0 0 0
SMALL
GASTEIGER

@<TRIPOS>ATOM
      1 O           6.5678    0.2565    0.0000 O.3     1  UNL1       -0.4510
      2 O           7.5047   -0.3524    0.0000 O.3     1  UNL1       -0.4910
      3 O           9.3170   -1.5476    0.0000 O.3     1  UNL1       -0.4489
      4 O           9.3170   -3.1571    0.0000 O.3     1  UNL1       -0.4525
      5 O           6.8739    2.0063    0.0000 O.2     1  UNL1       -0.2448
      6 O           4.9425    2.9208    0.0000 O.3     1  UNL1       -0.5027
      7 O           2.9808    2.5310    0.0000 O.3     1  UNL1       -0.4914
      8 N           4.8387   -1.8316    0.0000 N.3     1  UNL1       -0.2946
      9 C           5.7448   -1.3177    0.0000 C.3     1  UNL1        0.0808
     10 C           5.7563   -0.3178    0.0000 C.3     1  UNL1        0.1489
     11 C           6.6387   -1.8524    0.0000 C.ar    1  UNL1        0.0223
     12 C           4.8387   -2.8732    0.0000 C.3     1  UNL1        0.0033
     13 C           6.6387   -2.8524    0.0000 C.ar    1  UNL1       -0.0342
     14 C           5.7448   -3.3870    0.0000 C.3     1  UNL1       -0.0143
     15 C           4.9584    0.2751    0.0000 C.ar    1  UNL1        0.0123
     16 C           7.5047   -1.3524    0.0000 C.ar    1  UNL1        0.1704
     17 C           3.9746   -1.3282    0.0000 C.3     1  UNL1       -0.0120
     18 C           7.5047   -3.3524    0.0000 C.ar    1  UNL1       -0.0124
     19 C           5.2800    1.2220    0.0000 C.ar    1  UNL1        0.1106
     20 C           8.3708   -1.8524    0.0000 C.ar    1  UNL1        0.2079
     21 C           8.3708   -2.8524    0.0000 C.ar    1  UNL1        0.1702
     22 C           6.2740    1.2062    0.0000 C.2     1  UNL1        0.3439
     23 C           3.9776    0.0802    0.0000 C.ar    1  UNL1       -0.0505
     24 C           4.6208    1.9739    0.0000 C.ar    1  UNL1        0.1731
     25 C           3.3184    0.8322    0.0000 C.ar    1  UNL1       -0.0159
     26 C           3.6400    1.7790    0.0000 C.ar    1  UNL1        0.1621
     27 C           9.9006   -2.3524    0.0000 C.3     1  UNL1        0.2334
     28 C           8.3708    0.1476    0.0000 C.3     1  UNL1        0.0790
     29 C           2.0000    2.3361    0.0000 C.3     1  UNL1        0.0790
     30 H           5.0128   -0.8856    0.0000 H       1  UNL1        0.0554
     31 H           6.5090   -0.7127    0.0000 H       1  UNL1        0.0805
     32 H           4.2278   -2.7671    0.0000 H       1  UNL1        0.0430
     33 H           4.6296   -3.4569    0.0000 H       1  UNL1        0.0430
     34 H           5.3511   -3.8660    0.0000 H       1  UNL1        0.0326
     35 H           6.1494   -3.8568    0.0000 H       1  UNL1        0.0326
     36 H           4.2867   -0.7925    0.0000 H       1  UNL1        0.0391
     37 H           3.4389   -1.0162    0.0000 H       1  UNL1        0.0391
     38 H           3.6625   -1.8640    0.0000 H       1  UNL1        0.0391
     39 H           7.5047   -3.9724    0.0000 H       1  UNL1        0.0658
     40 H           3.7782   -0.5068    0.0000 H       1  UNL1        0.0623
     41 H           2.7103    0.7114    0.0000 H       1  UNL1        0.0655
     42 H          10.3615   -2.7671    0.0000 H       1  UNL1        0.1166
     43 H          10.3615   -1.9376    0.0000 H       1  UNL1        0.1166
     44 H           8.6808   -0.3893    0.0000 H       1  UNL1        0.0660
     45 H           8.9077    0.4576    0.0000 H       1  UNL1        0.0660
     46 H           8.0608    0.6846    0.0000 H       1  UNL1        0.0660
     47 H           4.5338    3.3870    0.0000 H       1  UNL1        0.2923
     48 H           1.8792    2.9442    0.0000 H       1  UNL1        0.0660
     49 H           1.3919    2.2153    0.0000 H       1  UNL1        0.0660
     50 H           2.1208    1.7280    0.0000 H       1  UNL1        0.0660
@<TRIPOS>BOND
     1     1    10    1
     2     1    22    1
     3     2    16    1
     4     2    28    1
     5     3    20    1
     6     3    27    1
     7     4    21    1
     8     4    27    1
     9     5    22    2
    10     6    24    1
    11     6    47    1
    12     7    26    1
    13     7    29    1
    14     8     9    1
    15     8    12    1
    16     8    17    1
    17     9    10    1
    18     9    11    1
    19     9    30    1
    20    10    15    1
    21    10    31    1
    22    11    13   ar
    23    11    16   ar
    24    12    14    1
    25    12    32    1
    26    12    33    1
    27    13    14    1
    28    13    18   ar
    29    14    34    1
    30    14    35    1
    31    15    19   ar
    32    15    23   ar
    33    16    20   ar
    34    17    36    1
    35    17    37    1
    36    17    38    1
    37    18    21   ar
    38    18    39    1
    39    19    22    1
    40    19    24   ar
    41    20    21   ar
    42    23    25   ar
    43    23    40    1
    44    24    26   ar
    45    25    26   ar
    46    25    41    1
    47    27    42    1
    48    27    43    1
    49    28    44    1
    50    28    45    1
    51    28    46    1
    52    29    48    1
    53    29    49    1
    54    29    50    1
