@<TRIPOS>MOLECULE
IMPHY002694
 81 85 0 0 0
SMALL
GASTEIGER

@<TRIPOS>ATOM
      1 O           2.5357   -2.1574    0.0000 O.3     1  UNL1       -0.3912
      2 C           7.0628   -0.6051    0.0000 C.3     1  UNL1       -0.0228
      3 C           6.1968   -0.1051    0.0000 C.3     1  UNL1       -0.0294
      4 C           7.9288   -0.1051    0.0000 C.3     1  UNL1       -0.0194
      5 C           5.2868   -0.6119    0.0000 C.3     1  UNL1       -0.0252
      6 C           7.9288    0.8949    0.0000 C.3     1  UNL1       -0.0257
      7 C           5.2787   -1.6535    0.0000 C.3     1  UNL1       -0.0278
      8 C           7.0789   -1.6466    0.0000 C.3     1  UNL1       -0.0466
      9 C           6.1968    0.8949    0.0000 C.3     1  UNL1       -0.0489
     10 C           8.8228    1.4296    0.0000 C.3     1  UNL1       -0.0072
     11 C           7.0628    1.3949    0.0000 C.3     1  UNL1       -0.0486
     12 C           6.1808   -2.1744    0.0000 C.3     1  UNL1       -0.0486
     13 C           4.3433   -2.2032    0.0000 C.3     1  UNL1       -0.0056
     14 C           8.8228   -0.6397    0.0000 C.3     1  UNL1       -0.0283
     15 C           4.3599   -0.0478    0.0000 C.3     1  UNL1       -0.0447
     16 C           7.7056   -1.3711    0.0000 C.3     1  UNL1       -0.0588
     17 C           8.2709   -1.0447    0.0000 C.3     1  UNL1       -0.0585
     18 C           9.7288    0.9157    0.0000 C.2     1  UNL1       -0.0616
     19 C           5.2945    0.3880    0.0000 C.3     1  UNL1       -0.0590
     20 C           3.4037   -1.6608    0.0000 C.3     1  UNL1        0.0606
     21 C           3.4120   -0.5758    0.0000 C.3     1  UNL1       -0.0258
     22 C           8.7977    2.5143    0.0000 C.3     1  UNL1       -0.0436
     23 C           9.7288   -0.1259    0.0000 C.2     1  UNL1       -0.0832
     24 C          10.6726    1.4510    0.0000 C.3     1  UNL1       -0.0134
     25 C           7.9529    1.9229    0.0000 C.3     1  UNL1       -0.0556
     26 C           3.8467   -3.0712    0.0000 C.3     1  UNL1       -0.0572
     27 C           4.8466   -3.0673    0.0000 C.3     1  UNL1       -0.0572
     28 C           9.7288    3.0712    0.0000 C.3     1  UNL1       -0.0515
     29 C          10.6726    2.5360    0.0000 C.3     1  UNL1       -0.0441
     30 C          11.6726    1.4471    0.0000 C.3     1  UNL1       -0.0561
     31 C          11.1693    0.5830    0.0000 C.3     1  UNL1       -0.0561
     32 H           6.9329    0.3199    0.0000 H       1  UNL1        0.0312
     33 H           8.6682    0.4756    0.0000 H       1  UNL1        0.0315
     34 H           5.2820   -2.5035    0.0000 H       1  UNL1        0.0312
     35 H           7.2969   -2.2270    0.0000 H       1  UNL1        0.0271
     36 H           7.6880   -1.5311    0.0000 H       1  UNL1        0.0271
     37 H           5.9847    1.4775    0.0000 H       1  UNL1        0.0268
     38 H           5.5862    0.7873    0.0000 H       1  UNL1        0.0268
     39 H           7.4613    1.8699    0.0000 H       1  UNL1        0.0268
     40 H           6.6643    1.8699    0.0000 H       1  UNL1        0.0268
     41 H           5.7835   -2.6503    0.0000 H       1  UNL1        0.0268
     42 H           6.5818   -2.6472    0.0000 H       1  UNL1        0.0268
     43 H           8.4182   -1.1095    0.0000 H       1  UNL1        0.0313
     44 H           9.2164   -1.1188    0.0000 H       1  UNL1        0.0313
     45 H           4.7681    0.4188    0.0000 H       1  UNL1        0.0271
     46 H           3.9700    0.4342    0.0000 H       1  UNL1        0.0271
     47 H           7.2306   -1.7697    0.0000 H       1  UNL1        0.0235
     48 H           8.1041   -1.8461    0.0000 H       1  UNL1        0.0235
     49 H           8.1805   -0.9726    0.0000 H       1  UNL1        0.0235
     50 H           7.6884   -1.2568    0.0000 H       1  UNL1        0.0235
     51 H           8.4830   -1.6273    0.0000 H       1  UNL1        0.0235
     52 H           8.8535   -0.8326    0.0000 H       1  UNL1        0.0235
     53 H           5.9145    0.3833    0.0000 H       1  UNL1        0.0235
     54 H           5.2993    1.0080    0.0000 H       1  UNL1        0.0235
     55 H           4.6745    0.3928    0.0000 H       1  UNL1        0.0235
     56 H           3.4025   -2.2808    0.0000 H       1  UNL1        0.0599
     57 H           3.2075    0.0095    0.0000 H       1  UNL1        0.0290
     58 H           2.8004   -0.6772    0.0000 H       1  UNL1        0.0290
     59 H           8.5752    3.0930    0.0000 H       1  UNL1        0.0274
     60 H           8.1894    2.3941    0.0000 H       1  UNL1        0.0274
     61 H          10.2646   -0.4380    0.0000 H       1  UNL1        0.0572
     62 H           8.2588    2.4622    0.0000 H       1  UNL1        0.0238
     63 H           7.4136    2.2287    0.0000 H       1  UNL1        0.0238
     64 H           7.6471    1.3836    0.0000 H       1  UNL1        0.0238
     65 H           4.3109   -3.3794    0.0000 H       1  UNL1        0.0236
     66 H           5.1587   -3.6031    0.0000 H       1  UNL1        0.0236
     67 H           5.3824   -2.7553    0.0000 H       1  UNL1        0.0236
     68 H           3.3085   -2.7633    0.0000 H       1  UNL1        0.0236
     69 H           3.5387   -3.6093    0.0000 H       1  UNL1        0.0236
     70 H           4.3848   -3.3791    0.0000 H       1  UNL1        0.0236
     71 H          10.1225    3.5502    0.0000 H       1  UNL1        0.0266
     72 H           9.3242    3.5410    0.0000 H       1  UNL1        0.0266
     73 H          11.2835    2.4299    0.0000 H       1  UNL1        0.0273
     74 H          10.8817    3.1197    0.0000 H       1  UNL1        0.0273
     75 H          10.6311    0.2751    0.0000 H       1  UNL1        0.0238
     76 H          11.4772    0.0449    0.0000 H       1  UNL1        0.0238
     77 H          11.7074    0.8910    0.0000 H       1  UNL1        0.0238
     78 H          11.6702    0.8271    0.0000 H       1  UNL1        0.0238
     79 H          12.2926    1.4447    0.0000 H       1  UNL1        0.0238
     80 H          11.6750    2.0671    0.0000 H       1  UNL1        0.0238
     81 H           2.0000   -1.8454    0.0000 H       1  UNL1        0.2098
@<TRIPOS>BOND
     1    20     1    1
     2     1    81    1
     3     2     3    1
     4     2     4    1
     5     2     8    1
     6     2    16    1
     7     3     5    1
     8     3     9    1
     9     3    32    1
    10     4     6    1
    11     4    14    1
    12     4    17    1
    13     5     7    1
    14     5    15    1
    15     5    19    1
    16     6    10    1
    17     6    11    1
    18     6    33    1
    19     7    12    1
    20     7    13    1
    21     7    34    1
    22     8    12    1
    23     8    35    1
    24     8    36    1
    25     9    11    1
    26     9    37    1
    27     9    38    1
    28    10    18    1
    29    10    22    1
    30    10    25    1
    31    11    39    1
    32    11    40    1
    33    12    41    1
    34    12    42    1
    35    13    20    1
    36    13    26    1
    37    13    27    1
    38    14    23    1
    39    14    43    1
    40    14    44    1
    41    15    21    1
    42    15    45    1
    43    15    46    1
    44    16    47    1
    45    16    48    1
    46    16    49    1
    47    17    50    1
    48    17    51    1
    49    17    52    1
    50    18    23    2
    51    18    24    1
    52    19    53    1
    53    19    54    1
    54    19    55    1
    55    20    21    1
    56    20    56    1
    57    21    57    1
    58    21    58    1
    59    22    28    1
    60    22    59    1
    61    22    60    1
    62    23    61    1
    63    24    29    1
    64    24    30    1
    65    24    31    1
    66    25    62    1
    67    25    63    1
    68    25    64    1
    69    26    68    1
    70    26    69    1
    71    26    70    1
    72    27    65    1
    73    27    66    1
    74    27    67    1
    75    28    29    1
    76    28    71    1
    77    28    72    1
    78    29    73    1
    79    29    74    1
    80    30    78    1
    81    30    79    1
    82    30    80    1
    83    31    75    1
    84    31    76    1
    85    31    77    1
