@<TRIPOS>MOLECULE
IMPHY001511
 82 88 0 0 0
SMALL
GASTEIGER

@<TRIPOS>ATOM
      1 O           6.4896    2.0543    0.0000 O.3     1  UNL1       -0.4482
      2 O           8.1819    4.1113    0.0000 O.3     1  UNL1       -0.4913
      3 O           6.4498    3.1113    0.0000 O.3     1  UNL1       -0.5009
      4 O           5.4302    3.8563    0.0000 O.3     1  UNL1       -0.4914
      5 O           4.7866   -1.1769    0.0000 O.3     1  UNL1       -0.4945
      6 O           4.8208   -4.2210    0.0000 O.3     1  UNL1       -0.5062
      7 N           9.0638   -0.4580    0.0000 N.3     1  UNL1       -0.2977
      8 N           2.5282    0.3875    0.0000 N.3     1  UNL1       -0.3087
      9 C           8.1658    0.0698    0.0000 C.3     1  UNL1        0.0432
     10 C           8.1819    1.1113    0.0000 C.ar    1  UNL1        0.0193
     11 C           9.9659    0.0629    0.0000 C.3     1  UNL1        0.0032
     12 C           9.0479    1.6113    0.0000 C.ar    1  UNL1       -0.0343
     13 C           9.9579    1.1044    0.0000 C.3     1  UNL1       -0.0143
     14 C           8.0995   -0.8653    0.0000 C.3     1  UNL1       -0.0077
     15 C           3.5032    0.4418    0.0000 C.3     1  UNL1        0.0372
     16 C           7.3158    1.6113    0.0000 C.ar    1  UNL1        0.1784
     17 C           3.9389    1.2719    0.0000 C.ar    1  UNL1       -0.0233
     18 C           3.4298    2.1052    0.0000 C.ar    1  UNL1       -0.0378
     19 C           7.6785   -1.7030    0.0000 C.ar    1  UNL1       -0.0448
     20 C           3.4204   -0.4920    0.0000 C.3     1  UNL1       -0.0081
     21 C           9.0600   -1.4580    0.0000 C.3     1  UNL1       -0.0122
     22 C           2.4538    2.0734    0.0000 C.3     1  UNL1       -0.0147
     23 C           9.0479    2.6113    0.0000 C.ar    1  UNL1       -0.0125
     24 C           2.0000    1.2088    0.0000 C.3     1  UNL1        0.0004
     25 C           7.3158    2.6113    0.0000 C.ar    1  UNL1        0.2020
     26 C           4.6604    1.8704    0.0000 C.ar    1  UNL1       -0.0107
     27 C           5.5566    2.1454    0.0000 C.ar    1  UNL1        0.1703
     28 C           8.1819    3.1113    0.0000 C.ar    1  UNL1        0.1653
     29 C           3.7032   -1.3858    0.0000 C.ar    1  UNL1       -0.0448
     30 C           3.9765    2.9451    0.0000 C.ar    1  UNL1       -0.0128
     31 C           6.9677   -2.3142    0.0000 C.ar    1  UNL1       -0.0472
     32 C           4.9786    2.9641    0.0000 C.ar    1  UNL1        0.1624
     33 C           6.0765   -2.6048    0.0000 C.ar    1  UNL1        0.0275
     34 C           7.1482   -0.8592    0.0000 C.ar    1  UNL1       -0.0550
     35 C           5.1420   -2.5303    0.0000 C.ar    1  UNL1        0.0273
     36 C           4.3081   -2.1019    0.0000 C.ar    1  UNL1       -0.0472
     37 C           5.6302   -1.7138    0.0000 C.ar    1  UNL1        0.1279
     38 C           3.1213   -2.1948    0.0000 C.ar    1  UNL1       -0.0550
     39 C           6.1516   -0.8645    0.0000 C.ar    1  UNL1       -0.0191
     40 C           4.4845   -3.2792    0.0000 C.ar    1  UNL1        0.1247
     41 C           3.5014   -3.1160    0.0000 C.ar    1  UNL1       -0.0193
     42 C           9.0479    4.6113    0.0000 C.3     1  UNL1        0.0790
     43 C           4.8833    4.6935    0.0000 C.3     1  UNL1        0.0790
     44 C           4.8297   -0.1778    0.0000 C.3     1  UNL1        0.0788
     45 H           7.5464    0.0965    0.0000 H       1  UNL1        0.0516
     46 H          10.1795   -0.5192    0.0000 H       1  UNL1        0.0430
     47 H          10.5759    0.1737    0.0000 H       1  UNL1        0.0430
     48 H          10.5695    1.0031    0.0000 H       1  UNL1        0.0326
     49 H          10.1624    1.6897    0.0000 H       1  UNL1        0.0326
     50 H           8.5051   -1.3342    0.0000 H       1  UNL1        0.0332
     51 H           7.5017   -0.7010    0.0000 H       1  UNL1        0.0332
     52 H           3.0577    0.0107    0.0000 H       1  UNL1        0.0513
     53 H           2.8706   -0.2054    0.0000 H       1  UNL1        0.0332
     54 H           4.0367   -0.4245    0.0000 H       1  UNL1        0.0332
     55 H           8.4400   -1.4556    0.0000 H       1  UNL1        0.0391
     56 H           9.0576   -2.0780    0.0000 H       1  UNL1        0.0391
     57 H           9.6800   -1.4603    0.0000 H       1  UNL1        0.0391
     58 H           2.5400    2.6874    0.0000 H       1  UNL1        0.0326
     59 H           1.8636    2.2634    0.0000 H       1  UNL1        0.0326
     60 H           9.5848    2.9213    0.0000 H       1  UNL1        0.0658
     61 H           1.5084    1.5866    0.0000 H       1  UNL1        0.0427
     62 H           1.5436    0.7891    0.0000 H       1  UNL1        0.0427
     63 H           2.2464   -0.1648    0.0000 H       1  UNL1        0.1225
     64 H           4.3658    2.4160    0.0000 H       1  UNL1        0.0659
     65 H           3.6758    3.4874    0.0000 H       1  UNL1        0.0658
     66 H           7.2719   -2.8544    0.0000 H       1  UNL1        0.0627
     67 H           7.4466   -0.3158    0.0000 H       1  UNL1        0.0621
     68 H           3.9221   -2.5871    0.0000 H       1  UNL1        0.0627
     69 H           2.5054   -2.1230    0.0000 H       1  UNL1        0.0621
     70 H           5.8475   -0.3242    0.0000 H       1  UNL1        0.0654
     71 H           3.1154   -3.6012    0.0000 H       1  UNL1        0.0654
     72 H           6.4498    3.7313    0.0000 H       1  UNL1        0.2924
     73 H           9.3579    4.0744    0.0000 H       1  UNL1        0.0660
     74 H           9.5848    4.9213    0.0000 H       1  UNL1        0.0660
     75 H           8.7379    5.1482    0.0000 H       1  UNL1        0.0660
     76 H           5.4024    5.0326    0.0000 H       1  UNL1        0.0660
     77 H           4.5442    5.2126    0.0000 H       1  UNL1        0.0660
     78 H           4.3642    4.3544    0.0000 H       1  UNL1        0.0660
     79 H           4.4193   -4.6935    0.0000 H       1  UNL1        0.2922
     80 H           5.4491   -0.2046    0.0000 H       1  UNL1        0.0660
     81 H           4.8564    0.4416    0.0000 H       1  UNL1        0.0660
     82 H           4.2103   -0.1511    0.0000 H       1  UNL1        0.0660
@<TRIPOS>BOND
     1     1    16    1
     2     1    27    1
     3     2    28    1
     4     2    42    1
     5     3    25    1
     6     3    72    1
     7     4    32    1
     8     4    43    1
     9     5    37    1
    10     5    44    1
    11     6    40    1
    12     6    79    1
    13     7     9    1
    14     7    11    1
    15     7    21    1
    16     8    15    1
    17     8    24    1
    18     8    63    1
    19     9    10    1
    20     9    14    1
    21     9    45    1
    22    10    12   ar
    23    10    16   ar
    24    11    13    1
    25    11    46    1
    26    11    47    1
    27    12    13    1
    28    12    23   ar
    29    13    48    1
    30    13    49    1
    31    14    19    1
    32    14    50    1
    33    14    51    1
    34    15    17    1
    35    15    20    1
    36    15    52    1
    37    16    25   ar
    38    17    18   ar
    39    17    26   ar
    40    18    22    1
    41    18    30   ar
    42    19    31   ar
    43    19    34   ar
    44    20    29    1
    45    20    53    1
    46    20    54    1
    47    21    55    1
    48    21    56    1
    49    21    57    1
    50    22    24    1
    51    22    58    1
    52    22    59    1
    53    23    28   ar
    54    23    60    1
    55    24    61    1
    56    24    62    1
    57    25    28   ar
    58    26    27   ar
    59    26    64    1
    60    27    32   ar
    61    29    36   ar
    62    29    38   ar
    63    30    32   ar
    64    30    65    1
    65    31    33   ar
    66    31    66    1
    67    33    35    1
    68    33    37   ar
    69    34    39   ar
    70    34    67    1
    71    35    36   ar
    72    35    40   ar
    73    36    68    1
    74    37    39   ar
    75    38    41   ar
    76    38    69    1
    77    39    70    1
    78    40    41   ar
    79    41    71    1
    80    42    73    1
    81    42    74    1
    82    42    75    1
    83    43    76    1
    84    43    77    1
    85    43    78    1
    86    44    80    1
    87    44    81    1
    88    44    82    1
