@<TRIPOS>MOLECULE
IMPHY015836
 14 13 0 0 0
SMALL
GASTEIGER

@<TRIPOS>ATOM
      1 O           2.8660   -1.2500    0.0000 O.2     1  UNL1       -0.2927
      2 C           3.7320    0.2500    0.0000 C.2     1  UNL1       -0.0154
      3 C           2.8660   -0.2500    0.0000 C.2     1  UNL1        0.1554
      4 C           4.5981   -0.2500    0.0000 C.3     1  UNL1       -0.0370
      5 C           2.0000    0.2500    0.0000 C.3     1  UNL1       -0.0018
      6 C           3.7320    1.2500    0.0000 C.2     1  UNL1       -0.0925
      7 H           4.2881   -0.7869    0.0000 H       1  UNL1        0.0278
      8 H           5.1350   -0.5600    0.0000 H       1  UNL1        0.0278
      9 H           4.9081    0.2869    0.0000 H       1  UNL1        0.0278
     10 H           2.3100    0.7869    0.0000 H       1  UNL1        0.0309
     11 H           1.4631    0.5600    0.0000 H       1  UNL1        0.0309
     12 H           1.6900   -0.2869    0.0000 H       1  UNL1        0.0309
     13 H           4.2690    1.5600    0.0000 H       1  UNL1        0.0538
     14 H           3.1951    1.5600    0.0000 H       1  UNL1        0.0538
@<TRIPOS>BOND
     1     1     3    2
     2     2     3    1
     3     2     4    1
     4     2     6    2
     5     3     5    1
     6     4     7    1
     7     4     8    1
     8     4     9    1
     9     5    10    1
    10     5    11    1
    11     5    12    1
    12     6    13    1
    13     6    14    1
