@<TRIPOS>MOLECULE
IMPHY000092
 21 22 0 0 0
SMALL
GASTEIGER

@<TRIPOS>ATOM
      1 O           2.8660    1.5420    0.0000 O.3     1  UNL1       -0.5061
      2 N           4.6783   -1.2627    0.0000 N.ar    1  UNL1       -0.3602
      3 N           6.9459    1.7097    0.0000 N.1     1  UNL1       -0.1962
      4 C           3.7320    0.0420    0.0000 C.ar    1  UNL1        0.0452
      5 C           4.6783    0.3468    0.0000 C.ar    1  UNL1       -0.0051
      6 C           3.7320   -0.9580    0.0000 C.ar    1  UNL1        0.0503
      7 C           5.2619   -0.4580    0.0000 C.ar    1  UNL1        0.0070
      8 C           2.8660    0.5420    0.0000 C.ar    1  UNL1        0.1263
      9 C           4.9889    1.2973    0.0000 C.3     1  UNL1        0.0619
     10 C           2.8660   -1.4580    0.0000 C.ar    1  UNL1       -0.0376
     11 C           2.0000    0.0420    0.0000 C.ar    1  UNL1       -0.0194
     12 C           2.0000   -0.9580    0.0000 C.ar    1  UNL1       -0.0563
     13 C           5.9674    1.5035    0.0000 C.1     1  UNL1        0.0673
     14 H           5.8819   -0.4580    0.0000 H       1  UNL1        0.0810
     15 H           4.8709   -1.8520    0.0000 H       1  UNL1        0.1653
     16 H           4.9684    1.9169    0.0000 H       1  UNL1        0.0467
     17 H           4.3751    1.3846    0.0000 H       1  UNL1        0.0467
     18 H           2.8660   -2.0780    0.0000 H       1  UNL1        0.0638
     19 H           1.4631    0.3520    0.0000 H       1  UNL1        0.0654
     20 H           1.4631   -1.2680    0.0000 H       1  UNL1        0.0619
     21 H           2.3291    1.8520    0.0000 H       1  UNL1        0.2922
@<TRIPOS>BOND
     1     1     8    1
     2     1    21    1
     3     2     6   ar
     4     2     7   ar
     5     2    15    1
     6     3    13    3
     7     4     5   ar
     8     4     6   ar
     9     4     8   ar
    10     5     7   ar
    11     5     9    1
    12     6    10   ar
    13     7    14    1
    14     8    11   ar
    15     9    13    1
    16     9    16    1
    17     9    17    1
    18    10    12   ar
    19    10    18    1
    20    11    12   ar
    21    11    19    1
    22    12    20    1
