@<TRIPOS>MOLECULE
IMPHY006375
 47 50 0 0 0
SMALL
GASTEIGER

@<TRIPOS>ATOM
      1 O           7.4982   -0.6896    0.0000 O.3     1  UNL1       -0.4811
      2 O           4.9061   -0.1596    0.0000 O.3     1  UNL1       -0.3875
      3 O           5.7094   -3.7006    0.0000 O.3     1  UNL1       -0.5063
      4 O           8.4197    2.8791    0.0000 O.3     1  UNL1       -0.5033
      5 O           6.6380    3.8896    0.0000 O.3     1  UNL1       -0.5028
      6 O           9.2488   -3.7551    0.0000 O.3     1  UNL1       -0.5065
      7 O           5.1963    3.9534    0.0000 O.3     1  UNL1       -0.5027
      8 O           3.3754    3.5378    0.0000 O.2     1  UNL1       -0.2840
      9 O           2.3866    0.3212    0.0000 O.3     1  UNL1       -0.4771
     10 O           3.7407   -0.7587    0.0000 O.2     1  UNL1       -0.2451
     11 C           6.6380   -0.1796    0.0000 C.3     1  UNL1        0.1518
     12 C           5.7663   -0.6696    0.0000 C.3     1  UNL1        0.1004
     13 C           5.7547   -1.6695    0.0000 C.3     1  UNL1        0.0092
     14 C           6.6496    0.8203    0.0000 C.ar    1  UNL1        0.0067
     15 C           6.6149   -2.1795    0.0000 C.ar    1  UNL1        0.0384
     16 C           7.4866   -1.6895    0.0000 C.ar    1  UNL1        0.1317
     17 C           5.7556    1.3550    0.0000 C.ar    1  UNL1       -0.0030
     18 C           7.5556    1.3342    0.0000 C.ar    1  UNL1       -0.0092
     19 C           5.7556    2.3550    0.0000 C.ar    1  UNL1        0.0728
     20 C           6.5868   -3.2207    0.0000 C.ar    1  UNL1        0.1270
     21 C           8.3907   -2.2069    0.0000 C.ar    1  UNL1        0.0221
     22 C           7.5556    2.3758    0.0000 C.ar    1  UNL1        0.1594
     23 C           6.6496    2.8896    0.0000 C.ar    1  UNL1        0.1698
     24 C           4.9738    0.7315    0.0000 C.ar    1  UNL1       -0.0393
     25 C           7.4787   -3.7588    0.0000 C.ar    1  UNL1        0.0218
     26 C           8.3867   -3.2485    0.0000 C.ar    1  UNL1        0.1238
     27 C           4.9738    2.9785    0.0000 C.ar    1  UNL1        0.1751
     28 C           3.9989    0.9540    0.0000 C.ar    1  UNL1        0.0632
     29 C           3.9989    2.7560    0.0000 C.ar    1  UNL1        0.2215
     30 C           3.5650    1.8550    0.0000 C.ar    1  UNL1        0.0027
     31 C           3.3754    0.1722    0.0000 C.2     1  UNL1        0.3369
     32 H           7.1785    0.1242    0.0000 H       1  UNL1        0.0811
     33 H           5.2258   -0.9733    0.0000 H       1  UNL1        0.0637
     34 H           5.1454   -1.5548    0.0000 H       1  UNL1        0.0342
     35 H           5.5359   -2.2496    0.0000 H       1  UNL1        0.0342
     36 H           8.0914    1.0221    0.0000 H       1  UNL1        0.0659
     37 H           4.3656   -0.4633    0.0000 H       1  UNL1        0.2100
     38 H           8.9277   -1.8968    0.0000 H       1  UNL1        0.0691
     39 H           5.1118    0.1270    0.0000 H       1  UNL1        0.0632
     40 H           7.4691   -4.3788    0.0000 H       1  UNL1        0.0691
     41 H           2.9450    1.8550    0.0000 H       1  UNL1        0.0665
     42 H           5.6951   -4.3204    0.0000 H       1  UNL1        0.2921
     43 H           8.9579    2.5712    0.0000 H       1  UNL1        0.2923
     44 H           7.1713    4.2058    0.0000 H       1  UNL1        0.2923
     45 H           9.2441   -4.3751    0.0000 H       1  UNL1        0.2921
     46 H           4.7418    4.3751    0.0000 H       1  UNL1        0.2923
     47 H           2.0000   -0.1635    0.0000 H       1  UNL1        0.2954
@<TRIPOS>BOND
     1     1    11    1
     2     1    16    1
     3     2    12    1
     4     2    37    1
     5     3    20    1
     6     3    42    1
     7     4    22    1
     8     4    43    1
     9     5    23    1
    10     5    44    1
    11     6    26    1
    12     6    45    1
    13     7    27    1
    14     7    46    1
    15     8    29    2
    16     9    31    1
    17     9    47    1
    18    10    31    2
    19    11    12    1
    20    11    14    1
    21    11    32    1
    22    12    13    1
    23    12    33    1
    24    13    15    1
    25    13    34    1
    26    13    35    1
    27    14    17   ar
    28    14    18   ar
    29    15    16   ar
    30    15    20   ar
    31    16    21   ar
    32    17    19   ar
    33    17    24   ar
    34    18    22   ar
    35    18    36    1
    36    19    23   ar
    37    19    27   ar
    38    20    25   ar
    39    21    26   ar
    40    21    38    1
    41    22    23   ar
    42    24    28   ar
    43    24    39    1
    44    25    26   ar
    45    25    40    1
    46    27    29   ar
    47    28    30   ar
    48    28    31    1
    49    29    30   ar
    50    30    41    1
