@<TRIPOS>MOLECULE
IMPHY009134
 78 82 0 0 0
SMALL
GASTEIGER

@<TRIPOS>ATOM
      1 C           5.6591   -0.3489    0.0000 C.3     1  UNL1       -0.0159
      2 C           3.8831   -0.3557    0.0000 C.3     1  UNL1       -0.0220
      3 C           4.7931    0.1511    0.0000 C.3     1  UNL1       -0.0107
      4 C           6.5251    0.1511    0.0000 C.3     1  UNL1       -0.0011
      5 C           3.8751   -1.3973    0.0000 C.3     1  UNL1       -0.0299
      6 C           5.6752   -1.3904    0.0000 C.3     1  UNL1       -0.0460
      7 C           4.7771   -1.9181    0.0000 C.3     1  UNL1       -0.0487
      8 C           2.9396   -1.9470    0.0000 C.3     1  UNL1       -0.0315
      9 C           8.3252    1.1719    0.0000 C.3     1  UNL1       -0.0074
     10 C           6.5251    1.1511    0.0000 C.2     1  UNL1       -0.0414
     11 C           7.4191   -0.3835    0.0000 C.3     1  UNL1       -0.0423
     12 C           2.9562    0.2084    0.0000 C.3     1  UNL1       -0.0468
     13 C           7.4191    1.6858    0.0000 C.2     1  UNL1       -0.0597
     14 C           8.3252    0.1303    0.0000 C.3     1  UNL1       -0.0428
     15 C           6.3019   -1.1149    0.0000 C.3     1  UNL1       -0.0582
     16 C           4.7931    1.1511    0.0000 C.2     1  UNL1       -0.0796
     17 C           2.0000   -1.4046    0.0000 C.3     1  UNL1       -0.0476
     18 C           9.0875    1.8727    0.0000 C.3     1  UNL1       -0.0293
     19 C           3.8908    0.6442    0.0000 C.3     1  UNL1       -0.0587
     20 C           2.0084   -0.3196    0.0000 C.3     1  UNL1       -0.0520
     21 C           6.8672   -0.7885    0.0000 C.3     1  UNL1       -0.0550
     22 C           5.6591    1.6511    0.0000 C.2     1  UNL1       -0.0617
     23 C           7.6292    2.6997    0.0000 C.3     1  UNL1       -0.0304
     24 C           8.6582    2.8150    0.0000 C.3     1  UNL1       -0.0455
     25 C           2.4430   -2.8150    0.0000 C.3     1  UNL1       -0.0595
     26 C           3.4430   -2.8111    0.0000 C.3     1  UNL1       -0.0595
     27 C           9.1950    0.6786    0.0000 C.3     1  UNL1       -0.0556
     28 C          10.0675    1.6740    0.0000 C.3     1  UNL1       -0.0431
     29 C          10.7296    2.4234    0.0000 C.3     1  UNL1       -0.0624
     30 C          10.3855    0.7259    0.0000 C.3     1  UNL1       -0.0624
     31 H           5.5292    0.5761    0.0000 H       1  UNL1        0.0354
     32 H           3.8783   -2.2473    0.0000 H       1  UNL1        0.0311
     33 H           5.8932   -1.9708    0.0000 H       1  UNL1        0.0271
     34 H           6.2843   -1.2749    0.0000 H       1  UNL1        0.0271
     35 H           4.3798   -2.3941    0.0000 H       1  UNL1        0.0268
     36 H           5.1781   -2.3910    0.0000 H       1  UNL1        0.0268
     37 H           7.0145   -0.8533    0.0000 H       1  UNL1        0.0274
     38 H           7.8127   -0.8626    0.0000 H       1  UNL1        0.0274
     39 H           3.3645    0.6750    0.0000 H       1  UNL1        0.0271
     40 H           2.5663    0.6904    0.0000 H       1  UNL1        0.0271
     41 H           8.5342   -0.4534    0.0000 H       1  UNL1        0.0274
     42 H           8.9360    0.2364    0.0000 H       1  UNL1        0.0274
     43 H           5.8270   -1.5134    0.0000 H       1  UNL1        0.0236
     44 H           6.7004   -1.5899    0.0000 H       1  UNL1        0.0236
     45 H           6.7768   -0.7164    0.0000 H       1  UNL1        0.0236
     46 H           4.2562    1.4611    0.0000 H       1  UNL1        0.0575
     47 H           1.3900   -1.2938    0.0000 H       1  UNL1        0.0271
     48 H           1.7864   -1.9866    0.0000 H       1  UNL1        0.0271
     49 H           9.4733    2.3580    0.0000 H       1  UNL1        0.0312
     50 H           4.5108    0.6395    0.0000 H       1  UNL1        0.0235
     51 H           3.8956    1.2642    0.0000 H       1  UNL1        0.0235
     52 H           3.2708    0.6490    0.0000 H       1  UNL1        0.0235
     53 H           1.8038    0.2657    0.0000 H       1  UNL1        0.0266
     54 H           1.3967   -0.4210    0.0000 H       1  UNL1        0.0266
     55 H           6.2847   -1.0006    0.0000 H       1  UNL1        0.0238
     56 H           7.0794   -1.3711    0.0000 H       1  UNL1        0.0238
     57 H           7.4498   -0.5764    0.0000 H       1  UNL1        0.0238
     58 H           5.6591    2.2711    0.0000 H       1  UNL1        0.0617
     59 H           7.6253    3.3197    0.0000 H       1  UNL1        0.0310
     60 H           7.0122    2.7610    0.0000 H       1  UNL1        0.0310
     61 H           9.2463    3.0113    0.0000 H       1  UNL1        0.0271
     62 H           8.5248    3.4205    0.0000 H       1  UNL1        0.0271
     63 H           1.9048   -2.5071    0.0000 H       1  UNL1        0.0235
     64 H           2.1350   -3.3531    0.0000 H       1  UNL1        0.0235
     65 H           2.9811   -3.1229    0.0000 H       1  UNL1        0.0235
     66 H           2.9072   -3.1232    0.0000 H       1  UNL1        0.0235
     67 H           3.7550   -3.3469    0.0000 H       1  UNL1        0.0235
     68 H           3.9787   -2.4991    0.0000 H       1  UNL1        0.0235
     69 H           8.8892    0.1393    0.0000 H       1  UNL1        0.0238
     70 H           9.7343    0.3728    0.0000 H       1  UNL1        0.0238
     71 H           9.5008    1.2179    0.0000 H       1  UNL1        0.0238
     72 H           9.6570    1.2094    0.0000 H       1  UNL1        0.0298
     73 H          11.1943    2.0130    0.0000 H       1  UNL1        0.0232
     74 H          11.1401    2.8881    0.0000 H       1  UNL1        0.0232
     75 H          10.2650    2.8340    0.0000 H       1  UNL1        0.0232
     76 H           9.7977    0.5288    0.0000 H       1  UNL1        0.0232
     77 H          10.5827    0.1381    0.0000 H       1  UNL1        0.0232
     78 H          10.9733    0.9231    0.0000 H       1  UNL1        0.0232
@<TRIPOS>BOND
     1     1     3    1
     2     1     4    1
     3     1     6    1
     4     1    15    1
     5     2     3    1
     6     2     5    1
     7     2    12    1
     8     2    19    1
     9     3    16    1
    10     3    31    1
    11     4    10    1
    12     4    11    1
    13     4    21    1
    14     5     7    1
    15     5     8    1
    16     5    32    1
    17     6     7    1
    18     6    33    1
    19     6    34    1
    20     7    35    1
    21     7    36    1
    22     8    17    1
    23     8    25    1
    24     8    26    1
    25     9    13    1
    26     9    14    1
    27     9    18    1
    28     9    27    1
    29    10    13    2
    30    10    22    1
    31    11    14    1
    32    11    37    1
    33    11    38    1
    34    12    20    1
    35    12    39    1
    36    12    40    1
    37    13    23    1
    38    14    41    1
    39    14    42    1
    40    15    43    1
    41    15    44    1
    42    15    45    1
    43    16    22    2
    44    16    46    1
    45    17    20    1
    46    17    47    1
    47    17    48    1
    48    18    24    1
    49    18    28    1
    50    18    49    1
    51    19    50    1
    52    19    51    1
    53    19    52    1
    54    20    53    1
    55    20    54    1
    56    21    55    1
    57    21    56    1
    58    21    57    1
    59    22    58    1
    60    23    24    1
    61    23    59    1
    62    23    60    1
    63    24    61    1
    64    24    62    1
    65    25    63    1
    66    25    64    1
    67    25    65    1
    68    26    66    1
    69    26    67    1
    70    26    68    1
    71    27    69    1
    72    27    70    1
    73    27    71    1
    74    28    29    1
    75    28    30    1
    76    28    72    1
    77    29    73    1
    78    29    74    1
    79    29    75    1
    80    30    76    1
    81    30    77    1
    82    30    78    1
