@<TRIPOS>MOLECULE
IMPHY012894
 43 44 0 0 0
SMALL
GASTEIGER

@<TRIPOS>ATOM
      1 O           4.2690   -2.2500    0.0000 O.3     1  UNL1       -0.4878
      2 O           2.5369    0.7500    0.0000 O.3     1  UNL1       -0.5059
      3 O           3.4030    2.2500    0.0000 O.2     1  UNL1       -0.2872
      4 C           4.2690    0.7500    0.0000 C.ar    1  UNL1        0.0632
      5 C           4.2690   -1.2500    0.0000 C.ar    1  UNL1        0.1245
      6 C           3.4030    0.2500    0.0000 C.ar    1  UNL1        0.1311
      7 C           3.4030   -0.7500    0.0000 C.ar    1  UNL1        0.0223
      8 C           5.1350    0.2500    0.0000 C.ar    1  UNL1       -0.0440
      9 C           5.1350   -0.7500    0.0000 C.ar    1  UNL1       -0.0190
     10 C           5.1350   -2.7500    0.0000 C.3     1  UNL1        0.1080
     11 C           4.2690    1.7500    0.0000 C.2     1  UNL1        0.1896
     12 C           5.1350   -3.7500    0.0000 C.2     1  UNL1       -0.0484
     13 C           6.0010   -4.2500    0.0000 C.2     1  UNL1       -0.0765
     14 C           5.1350    2.2500    0.0000 C.2     1  UNL1       -0.0137
     15 C           6.0010    3.7500    0.0000 C.ar    1  UNL1       -0.0249
     16 C           5.1350    3.2500    0.0000 C.2     1  UNL1       -0.0510
     17 C           6.0010   -5.2500    0.0000 C.3     1  UNL1       -0.0439
     18 C           6.8671   -3.7500    0.0000 C.3     1  UNL1       -0.0439
     19 C           6.8671    3.2500    0.0000 C.ar    1  UNL1       -0.0546
     20 C           6.0010    4.7500    0.0000 C.ar    1  UNL1       -0.0546
     21 C           7.7331    3.7500    0.0000 C.ar    1  UNL1       -0.0612
     22 C           6.8671    5.2500    0.0000 C.ar    1  UNL1       -0.0612
     23 C           7.7331    4.7500    0.0000 C.ar    1  UNL1       -0.0617
     24 H           2.8660   -1.0600    0.0000 H       1  UNL1        0.0691
     25 H           5.6720    0.5600    0.0000 H       1  UNL1        0.0627
     26 H           5.6720   -1.0600    0.0000 H       1  UNL1        0.0654
     27 H           5.7456   -2.8577    0.0000 H       1  UNL1        0.0742
     28 H           5.3471   -2.1674    0.0000 H       1  UNL1        0.0742
     29 H           4.5981   -4.0600    0.0000 H       1  UNL1        0.0605
     30 H           5.6720    1.9400    0.0000 H       1  UNL1        0.0656
     31 H           4.5981    3.5600    0.0000 H       1  UNL1        0.0625
     32 H           5.3810   -5.2500    0.0000 H       1  UNL1        0.0274
     33 H           6.0010   -5.8700    0.0000 H       1  UNL1        0.0274
     34 H           6.6210   -5.2500    0.0000 H       1  UNL1        0.0274
     35 H           7.1771   -4.2869    0.0000 H       1  UNL1        0.0274
     36 H           7.4040   -3.4400    0.0000 H       1  UNL1        0.0274
     37 H           6.5571   -3.2131    0.0000 H       1  UNL1        0.0274
     38 H           6.8671    2.6300    0.0000 H       1  UNL1        0.0623
     39 H           5.4641    5.0600    0.0000 H       1  UNL1        0.0623
     40 H           8.2700    3.4400    0.0000 H       1  UNL1        0.0618
     41 H           6.8671    5.8700    0.0000 H       1  UNL1        0.0618
     42 H           2.0000    0.4400    0.0000 H       1  UNL1        0.2922
     43 H           8.2700    5.0600    0.0000 H       1  UNL1        0.0618
@<TRIPOS>BOND
     1     1     5    1
     2     1    10    1
     3     2     6    1
     4     2    42    1
     5     3    11    2
     6     4     6   ar
     7     4     8   ar
     8     4    11    1
     9     5     7   ar
    10     5     9   ar
    11     6     7   ar
    12     7    24    1
    13     8     9   ar
    14     8    25    1
    15     9    26    1
    16    10    12    1
    17    10    27    1
    18    10    28    1
    19    11    14    1
    20    12    13    2
    21    12    29    1
    22    13    17    1
    23    13    18    1
    24    14    16    2
    25    14    30    1
    26    15    16    1
    27    15    19   ar
    28    15    20   ar
    29    16    31    1
    30    17    32    1
    31    17    33    1
    32    17    34    1
    33    18    35    1
    34    18    36    1
    35    18    37    1
    36    19    21   ar
    37    19    38    1
    38    20    22   ar
    39    20    39    1
    40    21    23   ar
    41    21    40    1
    42    22    23   ar
    43    22    41    1
    44    23    43    1
