@<TRIPOS>MOLECULE
IMPHY010175
 49 54 0 0 0
SMALL
GASTEIGER

@<TRIPOS>ATOM
      1 O           5.4297   -6.0106    0.0000 O.3     1  UNL1       -0.3318
      2 C           6.9198   -5.8969    0.0000 C.3     1  UNL1        0.1283
      3 C           8.0436   -5.2530    0.0000 C.3     1  UNL1        0.0214
      4 C           8.0436   -3.9523    0.0000 C.3     1  UNL1        0.0404
      5 C           6.9198   -3.2957    0.0000 C.3     1  UNL1        0.0034
      6 C           5.7959   -3.9523    0.0000 C.3     1  UNL1       -0.0013
      7 C           5.7959   -5.2530    0.0000 C.3     1  UNL1        0.0118
      8 C           4.5332   -5.5939    0.0000 C.3     1  UNL1        0.0521
      9 C           3.8892   -6.7177    0.0000 C.3     1  UNL1        0.0190
     10 C           4.2428   -7.9678    0.0000 C.3     1  UNL1        0.0404
     11 C           5.3666   -8.6118    0.0000 C.3     1  UNL1        0.2046
     12 C           6.6041   -8.2835    0.0000 C.3     1  UNL1        0.2502
     13 C           7.2481   -7.1597    0.0000 C.3     1  UNL1        0.2286
     14 C           4.8489   -7.2986    0.0000 C.3     1  UNL1        0.2511
     15 C           9.1674   -5.8969    0.0000 C.3     1  UNL1        0.1081
     16 C          10.3039   -5.2530    0.0000 C.2     1  UNL1        0.3169
     17 O          10.3039   -3.9523    0.0000 O.3     1  UNL1       -0.4476
     18 C           9.1674   -3.2957    0.0000 C.3     1  UNL1        0.1937
     19 C           8.0436   -2.6517    0.0000 C.3     1  UNL1        0.0037
     20 C           3.8387   -4.5458    0.0000 C.3     1  UNL1        0.0048
     21 C           2.5886   -6.7177    0.0000 C.3     1  UNL1        0.1098
     22 C           1.9446   -5.5939    0.0000 C.2     1  UNL1        0.3171
     23 O           2.5886   -4.4701    0.0000 O.2     1  UNL1       -0.2501
     24 C           2.9548   -8.1446    0.0000 C.3     1  UNL1        0.0037
     25 C           3.7377   -9.1674    0.0000 C.3     1  UNL1        0.0037
     26 O           5.3287  -10.0387    0.0000 O.3     1  UNL1       -0.4494
     27 C           6.4525  -10.6827    0.0000 C.2     1  UNL1        0.3164
     28 O           7.5764  -10.0387    0.0000 O.2     1  UNL1       -0.2501
     29 O           7.3617   -9.2432    0.0000 O.3     1  UNL1       -0.2129
     30 O           8.5487   -7.1723    0.0000 O.3     1  UNL1       -0.4469
     31 C           9.1927   -8.2961    0.0000 C.2     1  UNL1        0.3165
     32 O           8.5487   -9.4200    0.0000 O.2     1  UNL1       -0.2501
     33 O           3.3589   -7.2986    0.0000 O.3     1  UNL1       -0.1924
     34 O          11.4151   -5.8969    0.0000 O.2     1  UNL1       -0.2501
     35 C           9.1674   -2.0077    0.0000 C.ar    1  UNL1        0.0580
     36 C          10.2155   -1.2375    0.0000 C.ar    1  UNL1        0.1789
     37 O           9.8240    0.0000    0.0000 O.2     1  UNL1       -0.4475
     38 C           8.5108    0.0000    0.0000 C.ar    1  UNL1        0.1795
     39 C           8.1194   -1.2375    0.0000 C.ar    1  UNL1        0.0430
     40 O           0.6440   -5.5939    0.0000 O.3     1  UNL1       -0.4444
     41 C           0.0000   -4.4701    0.0000 C.3     1  UNL1        0.2556
     42 C           6.4525  -11.9833    0.0000 C.3     1  UNL1        0.0991
     43 C           5.3287  -12.6273    0.0000 C.3     1  UNL1        0.0116
     44 C          10.4933   -8.2961    0.0000 C.3     1  UNL1        0.0991
     45 C          11.1499   -9.4200    0.0000 C.3     1  UNL1        0.0116
     46 C           7.5764  -12.6273    0.0000 C.3     1  UNL1        0.0116
     47 C          11.1499   -7.1723    0.0000 C.3     1  UNL1        0.0116
     48 H           8.0436   -6.5536    0.0000 H       1  UNL1        0.0348
     49 H           4.8741   -4.2933    0.0000 H       1  UNL1        0.0343
@<TRIPOS>BOND
     1     1    14    1
     2     2     1    1
     3     2     3    1
     4     2    13    1
     5     2     7    1
     6     3     4    1
     7     3    15    1
     8     3    48    1
     9     4     5    1
    10     4    18    1
    11     4    19    1
    12     5     6    1
    13     6     7    1
    14     7     8    1
    15     7    49    1
    16     8    14    1
    17     8    20    1
    18     8     9    1
    19     9    10    1
    20     9    21    1
    21    10    11    1
    22    10    24    1
    23    10    25    1
    24    11    12    1
    25    11    26    1
    26    12    13    1
    27    12    14    1
    28    12    29    1
    29    13    30    1
    30    14    33    1
    31    15    16    1
    32    16    17    1
    33    16    34    2
    34    17    18    1
    35    18    35    1
    36    21    22    1
    37    22    23    2
    38    22    40    1
    39    26    27    1
    40    27    28    2
    41    27    42    1
    42    30    31    1
    43    31    44    1
    44    31    32    2
    45    35    39   ar
    46    35    36   ar
    47    36    37   ar
    48    37    38   ar
    49    38    39   ar
    50    40    41    1
    51    42    43    1
    52    42    46    1
    53    44    45    1
    54    44    47    1
