@<TRIPOS>MOLECULE
IMPHY008188
 42 45 0 0 0
SMALL
GASTEIGER

@<TRIPOS>ATOM
      1 O           8.1282    1.2500    0.0000 O.2     1  UNL1       -0.2866
      2 O           5.5301   -1.2500    0.0000 O.2     1  UNL1       -0.2866
      3 O           9.8766   -2.7846    0.0000 O.3     1  UNL1       -0.5060
      4 O           3.7817    2.7846    0.0000 O.3     1  UNL1       -0.5060
      5 O           8.1282   -2.7500    0.0000 O.2     1  UNL1       -0.2871
      6 O           5.5301    2.7500    0.0000 O.2     1  UNL1       -0.2871
      7 C           7.2622   -0.2500    0.0000 C.2     1  UNL1        0.0368
      8 C           6.3961    0.2500    0.0000 C.2     1  UNL1        0.0368
      9 C           8.9942   -0.2500    0.0000 C.ar    1  UNL1        0.0368
     10 C           4.6641    0.2500    0.0000 C.ar    1  UNL1        0.0368
     11 C           4.6641    1.2500    0.0000 C.ar    1  UNL1        0.0738
     12 C           8.9942   -1.2500    0.0000 C.ar    1  UNL1        0.0738
     13 C           8.1282    0.2500    0.0000 C.2     1  UNL1        0.1947
     14 C           5.5301   -0.2500    0.0000 C.2     1  UNL1        0.1947
     15 C           7.2622   -1.2500    0.0000 C.2     1  UNL1       -0.0027
     16 C           6.3961    1.2500    0.0000 C.2     1  UNL1       -0.0027
     17 C           8.1282   -1.7500    0.0000 C.2     1  UNL1        0.1909
     18 C           5.5301    1.7500    0.0000 C.2     1  UNL1        0.1909
     19 C           9.8882    0.2847    0.0000 C.ar    1  UNL1       -0.0471
     20 C           3.7702   -0.2847    0.0000 C.ar    1  UNL1       -0.0471
     21 C           9.8882   -1.7847    0.0000 C.ar    1  UNL1        0.1286
     22 C           3.7702    1.7847    0.0000 C.ar    1  UNL1        0.1286
     23 C          10.7942   -0.2292    0.0000 C.ar    1  UNL1       -0.0463
     24 C           2.8641    0.2292    0.0000 C.ar    1  UNL1       -0.0463
     25 C          10.7942   -1.2708    0.0000 C.ar    1  UNL1       -0.0165
     26 C           2.8641    1.2708    0.0000 C.ar    1  UNL1       -0.0165
     27 C           2.0000   -0.2742    0.0000 C.3     1  UNL1       -0.0396
     28 C          11.6583    0.2742    0.0000 C.3     1  UNL1       -0.0396
     29 H           6.9331    1.5600    0.0000 H       1  UNL1        0.0663
     30 H           6.7252   -1.5600    0.0000 H       1  UNL1        0.0663
     31 H           3.7773   -0.9046    0.0000 H       1  UNL1        0.0627
     32 H           9.8810    0.9046    0.0000 H       1  UNL1        0.0627
     33 H           2.3284    1.5829    0.0000 H       1  UNL1        0.0657
     34 H          11.3300   -1.5829    0.0000 H       1  UNL1        0.0657
     35 H           1.6879    0.2616    0.0000 H       1  UNL1        0.0278
     36 H          11.9704   -0.2616    0.0000 H       1  UNL1        0.0278
     37 H          12.1941    0.5862    0.0000 H       1  UNL1        0.0278
     38 H          11.3463    0.8099    0.0000 H       1  UNL1        0.0278
     39 H           1.4643   -0.5862    0.0000 H       1  UNL1        0.0278
     40 H           2.3121   -0.8099    0.0000 H       1  UNL1        0.0278
     41 H          10.4099   -3.1008    0.0000 H       1  UNL1        0.2922
     42 H           3.2484    3.1008    0.0000 H       1  UNL1        0.2922
@<TRIPOS>BOND
     1     1    13    2
     2     2    14    2
     3     3    21    1
     4     3    41    1
     5     4    22    1
     6     4    42    1
     7     5    17    2
     8     6    18    2
     9     7     8    1
    10     7    13    1
    11     7    15    2
    12     8    14    1
    13     8    16    2
    14     9    12   ar
    15     9    13    1
    16     9    19   ar
    17    10    11   ar
    18    10    14    1
    19    10    20   ar
    20    11    18    1
    21    11    22   ar
    22    12    17    1
    23    12    21   ar
    24    15    17    1
    25    15    30    1
    26    16    18    1
    27    16    29    1
    28    19    23   ar
    29    19    32    1
    30    20    24   ar
    31    20    31    1
    32    21    25   ar
    33    22    26   ar
    34    23    25   ar
    35    23    28    1
    36    24    26   ar
    37    24    27    1
    38    25    34    1
    39    26    33    1
    40    27    35    1
    41    27    39    1
    42    27    40    1
    43    28    36    1
    44    28    37    1
    45    28    38    1
