@<TRIPOS>MOLECULE
IMPHY004926
 30 31 0 0 0
SMALL
GASTEIGER

@<TRIPOS>ATOM
      1 O           4.2690   -1.7500    0.0000 O.3     1  UNL1       -0.4906
      2 O           2.5369    1.2500    0.0000 O.3     1  UNL1       -0.4913
      3 O           2.5369   -0.7500    0.0000 O.3     1  UNL1       -0.5009
      4 O           6.0174   -1.7846    0.0000 O.2     1  UNL1       -0.2669
      5 N           6.9350   -0.2708    0.0000 N.ar    1  UNL1       -0.3176
      6 C           5.1350   -0.2500    0.0000 C.ar    1  UNL1        0.0921
      7 C           5.1350    0.7500    0.0000 C.ar    1  UNL1       -0.0041
      8 C           4.2690   -0.7500    0.0000 C.ar    1  UNL1        0.1779
      9 C           6.0290   -0.7847    0.0000 C.ar    1  UNL1        0.2624
     10 C           4.2690    1.2500    0.0000 C.ar    1  UNL1       -0.0081
     11 C           6.0290    1.2847    0.0000 C.ar    1  UNL1       -0.0374
     12 C           3.4030   -0.2500    0.0000 C.ar    1  UNL1        0.2018
     13 C           3.4030    0.7500    0.0000 C.ar    1  UNL1        0.1656
     14 C           6.9350    0.7708    0.0000 C.ar    1  UNL1        0.0082
     15 C           7.7991   -0.7742    0.0000 C.3     1  UNL1        0.0147
     16 C           3.4030   -2.2500    0.0000 C.3     1  UNL1        0.0790
     17 C           2.5369    2.2500    0.0000 C.3     1  UNL1        0.0790
     18 H           4.2690    1.8700    0.0000 H       1  UNL1        0.0661
     19 H           6.0218    1.9046    0.0000 H       1  UNL1        0.0638
     20 H           7.4708    1.0829    0.0000 H       1  UNL1        0.0810
     21 H           7.4870   -1.3099    0.0000 H       1  UNL1        0.0457
     22 H           8.3348   -1.0862    0.0000 H       1  UNL1        0.0457
     23 H           8.1112   -0.2384    0.0000 H       1  UNL1        0.0457
     24 H           2.0000   -0.4400    0.0000 H       1  UNL1        0.2924
     25 H           3.0930   -1.7131    0.0000 H       1  UNL1        0.0660
     26 H           2.8660   -2.5600    0.0000 H       1  UNL1        0.0660
     27 H           3.7130   -2.7869    0.0000 H       1  UNL1        0.0660
     28 H           3.1569    2.2500    0.0000 H       1  UNL1        0.0660
     29 H           2.5369    2.8700    0.0000 H       1  UNL1        0.0660
     30 H           1.9169    2.2500    0.0000 H       1  UNL1        0.0660
@<TRIPOS>BOND
     1     1     8    1
     2     1    16    1
     3     2    13    1
     4     2    17    1
     5     3    12    1
     6     3    24    1
     7     4     9    2
     8     5     9   ar
     9     5    14   ar
    10     5    15    1
    11     6     7   ar
    12     6     8   ar
    13     6     9   ar
    14     7    10   ar
    15     7    11   ar
    16     8    12   ar
    17    10    13   ar
    18    10    18    1
    19    11    14   ar
    20    11    19    1
    21    12    13   ar
    22    14    20    1
    23    15    21    1
    24    15    22    1
    25    15    23    1
    26    16    25    1
    27    16    26    1
    28    16    27    1
    29    17    28    1
    30    17    29    1
    31    17    30    1
