@<TRIPOS>MOLECULE
IMPHY012295
 56 58 0 0 0
SMALL
GASTEIGER

@<TRIPOS>ATOM
      1 O           2.3038   -2.3072    0.0000 O.3     1  UNL1       -0.4802
      2 O           3.8137   -3.1558    0.0000 O.2     1  UNL1       -0.2504
      3 C           4.6876    0.1108    0.0000 C.3     1  UNL1       -0.0252
      4 C           5.5536    0.6108    0.0000 C.3     1  UNL1       -0.0325
      5 C           4.6876   -0.8892    0.0000 C.3     1  UNL1       -0.0199
      6 C           6.4196    0.1108    0.0000 C.3     1  UNL1       -0.0374
      7 C           3.7937   -1.4239    0.0000 C.3     1  UNL1        0.0681
      8 C           5.5536   -1.3893    0.0000 C.3     1  UNL1       -0.0484
      9 C           3.7937    0.6454    0.0000 C.3     1  UNL1       -0.0470
     10 C           6.4196   -0.8892    0.0000 C.3     1  UNL1       -0.0496
     11 C           5.5376    1.6523    0.0000 C.3     1  UNL1       -0.0492
     12 C           7.3296    0.6176    0.0000 C.3     1  UNL1       -0.0469
     13 C           7.3377    1.6592    0.0000 C.3     1  UNL1       -0.0384
     14 C           2.8876   -0.9101    0.0000 C.3     1  UNL1       -0.0372
     15 C           2.8876    0.1316    0.0000 C.3     1  UNL1       -0.0515
     16 C           4.6876    1.1107    0.0000 C.3     1  UNL1       -0.0590
     17 C           6.4356    2.1800    0.0000 C.3     1  UNL1       -0.0497
     18 C           4.3036   -2.2841    0.0000 C.3     1  UNL1       -0.0491
     19 C           8.2056    2.1558    0.0000 C.3     1  UNL1       -0.0439
     20 C           3.3037   -2.2957    0.0000 C.2     1  UNL1        0.3110
     21 C           8.2095    3.1558    0.0000 C.3     1  UNL1       -0.0624
     22 C           9.0697    1.6525    0.0000 C.3     1  UNL1       -0.0624
     23 H           6.0882    0.9249    0.0000 H       1  UNL1        0.0309
     24 H           4.6924   -1.5092    0.0000 H       1  UNL1        0.0317
     25 H           6.9542   -0.2034    0.0000 H       1  UNL1        0.0304
     26 H           5.1551   -1.8642    0.0000 H       1  UNL1        0.0268
     27 H           5.9521   -1.8642    0.0000 H       1  UNL1        0.0268
     28 H           4.1982    1.1152    0.0000 H       1  UNL1        0.0271
     29 H           3.4000    1.1244    0.0000 H       1  UNL1        0.0271
     30 H           6.6317   -1.4719    0.0000 H       1  UNL1        0.0268
     31 H           7.0302   -0.7816    0.0000 H       1  UNL1        0.0268
     32 H           5.3195    2.2327    0.0000 H       1  UNL1        0.0268
     33 H           4.9284    1.5368    0.0000 H       1  UNL1        0.0268
     34 H           7.5342    0.0323    0.0000 H       1  UNL1        0.0271
     35 H           7.9413    0.7190    0.0000 H       1  UNL1        0.0271
     36 H           7.3389    2.2792    0.0000 H       1  UNL1        0.0303
     37 H           2.2767   -0.8040    0.0000 H       1  UNL1        0.0276
     38 H           2.6785   -1.4938    0.0000 H       1  UNL1        0.0276
     39 H           2.6785    0.7153    0.0000 H       1  UNL1        0.0266
     40 H           2.2767    0.0255    0.0000 H       1  UNL1        0.0266
     41 H           5.3076    1.1107    0.0000 H       1  UNL1        0.0235
     42 H           4.6876    1.7308    0.0000 H       1  UNL1        0.0235
     43 H           4.0676    1.1107    0.0000 H       1  UNL1        0.0235
     44 H           6.8329    2.6560    0.0000 H       1  UNL1        0.0268
     45 H           6.0346    2.6529    0.0000 H       1  UNL1        0.0268
     46 H           3.7703   -2.6003    0.0000 H       1  UNL1        0.0240
     47 H           4.6198   -2.8174    0.0000 H       1  UNL1        0.0240
     48 H           4.8370   -1.9679    0.0000 H       1  UNL1        0.0240
     49 H           8.7438    2.4638    0.0000 H       1  UNL1        0.0298
     50 H           8.8295    3.1535    0.0000 H       1  UNL1        0.0232
     51 H           8.2119    3.7758    0.0000 H       1  UNL1        0.0232
     52 H           7.5895    3.1582    0.0000 H       1  UNL1        0.0232
     53 H           8.7576    1.1168    0.0000 H       1  UNL1        0.0232
     54 H           9.6054    1.3404    0.0000 H       1  UNL1        0.0232
     55 H           9.3818    2.1883    0.0000 H       1  UNL1        0.0232
     56 H           2.0000   -2.8477    0.0000 H       1  UNL1        0.2951
@<TRIPOS>BOND
     1     1    20    1
     2     1    56    1
     3     2    20    2
     4     3     4    1
     5     3     5    1
     6     3     9    1
     7     3    16    1
     8     4     6    1
     9     4    11    1
    10     4    23    1
    11     5     7    1
    12     5     8    1
    13     5    24    1
    14     6    10    1
    15     6    12    1
    16     6    25    1
    17     7    14    1
    18     7    18    1
    19     7    20    1
    20     8    10    1
    21     8    26    1
    22     8    27    1
    23     9    15    1
    24     9    28    1
    25     9    29    1
    26    10    30    1
    27    10    31    1
    28    11    17    1
    29    11    32    1
    30    11    33    1
    31    12    13    1
    32    12    34    1
    33    12    35    1
    34    13    17    1
    35    13    19    1
    36    13    36    1
    37    14    15    1
    38    14    37    1
    39    14    38    1
    40    15    39    1
    41    15    40    1
    42    16    41    1
    43    16    42    1
    44    16    43    1
    45    17    44    1
    46    17    45    1
    47    18    46    1
    48    18    47    1
    49    18    48    1
    50    19    21    1
    51    19    22    1
    52    19    49    1
    53    21    50    1
    54    21    51    1
    55    21    52    1
    56    22    53    1
    57    22    54    1
    58    22    55    1
