@<TRIPOS>MOLECULE
IMPHY015955
 8 8 0 0 0
SMALL
GASTEIGER

@<TRIPOS>ATOM
      1 S           2.8090   -0.7694    0.0000 S.2     1  UNL1       -0.0839
      2 N           3.3090    0.7694    0.0000 N.ar    1  UNL1       -0.2557
      3 C           2.0000   -0.1816    0.0000 C.ar    1  UNL1       -0.0048
      4 C           2.3090    0.7694    0.0000 C.ar    1  UNL1        0.0347
      5 C           3.6180   -0.1816    0.0000 C.ar    1  UNL1        0.0647
      6 H           1.4103   -0.3732    0.0000 H       1  UNL1        0.0709
      7 H           1.9446    1.2710    0.0000 H       1  UNL1        0.0835
      8 H           4.2077   -0.3732    0.0000 H       1  UNL1        0.0907
@<TRIPOS>BOND
     1     1     3   ar
     2     1     5   ar
     3     2     4   ar
     4     2     5   ar
     5     3     4   ar
     6     3     6    1
     7     4     7    1
     8     5     8    1
