@<TRIPOS>MOLECULE
IMPHY007933
 87 90 0 0 0
SMALL
GASTEIGER

@<TRIPOS>ATOM
      1 O          10.4473   -1.2518    0.0000 O.3     1  UNL1       -0.3914
      2 O           5.3194   -0.2518    0.0000 O.2     1  UNL1       -0.2967
      3 O          10.1248    0.1928    0.0000 O.3     1  UNL1       -0.3806
      4 O           4.3346   -1.0781    0.0000 O.3     1  UNL1       -0.3940
      5 O           2.5405   -1.7126    0.0000 O.3     1  UNL1       -0.3842
      6 O           8.8172    2.1982    0.0000 O.2     1  UNL1       -0.2896
      7 O           2.5244   -3.8042    0.0000 O.2     1  UNL1       -0.2937
      8 O          12.7312    3.0231    0.0000 O.3     1  UNL1       -0.4546
      9 O          12.3740    4.7179    0.0000 O.2     1  UNL1       -0.2511
     10 C           7.9174   -1.7518    0.0000 C.3     1  UNL1       -0.0194
     11 C           7.9174   -0.7518    0.0000 C.3     1  UNL1       -0.0114
     12 C           7.0514   -2.2518    0.0000 C.3     1  UNL1       -0.0166
     13 C           6.1854   -1.7518    0.0000 C.3     1  UNL1        0.0621
     14 C           8.8637   -0.4471    0.0000 C.3     1  UNL1        0.0271
     15 C           8.8637   -2.0566    0.0000 C.3     1  UNL1       -0.0202
     16 C           9.4473   -1.2518    0.0000 C.3     1  UNL1        0.0621
     17 C           7.0514   -0.2518    0.0000 C.3     1  UNL1        0.0128
     18 C           5.2754   -2.2587    0.0000 C.3     1  UNL1       -0.0015
     19 C           6.1854   -0.7518    0.0000 C.2     1  UNL1        0.1430
     20 C           7.0675   -3.2933    0.0000 C.3     1  UNL1       -0.0301
     21 C           7.9174   -2.7518    0.0000 C.3     1  UNL1       -0.0587
     22 C           7.9174    0.2482    0.0000 C.3     1  UNL1       -0.0582
     23 C           9.1743    0.5034    0.0000 C.3     1  UNL1        0.1304
     24 C           5.2674   -3.3003    0.0000 C.2     1  UNL1       -0.0565
     25 C           5.3194   -1.2518    0.0000 C.3     1  UNL1        0.0574
     26 C           4.3486   -1.6946    0.0000 C.3     1  UNL1       -0.0124
     27 C           6.1694   -3.8211    0.0000 C.2     1  UNL1       -0.0832
     28 C           4.3319   -3.8500    0.0000 C.3     1  UNL1        0.0471
     29 C           3.4007   -2.2225    0.0000 C.3     1  UNL1        0.1144
     30 C           8.2238    0.8141    0.0000 C.3     1  UNL1       -0.0284
     31 C           9.4850    1.4540    0.0000 C.2     1  UNL1        0.1873
     32 C           3.3923   -3.3075    0.0000 C.2     1  UNL1        0.1710
     33 C           3.8353   -4.7179    0.0000 C.3     1  UNL1       -0.0492
     34 C           4.8353   -4.7141    0.0000 C.3     1  UNL1       -0.0492
     35 C          10.4635    1.6602    0.0000 C.2     1  UNL1       -0.0165
     36 C          10.7742    2.6107    0.0000 C.2     1  UNL1       -0.0381
     37 C          11.7527    2.8169    0.0000 C.3     1  UNL1        0.1264
     38 C          11.5464    3.7954    0.0000 C.3     1  UNL1       -0.0214
     39 C          11.9589    1.8384    0.0000 C.3     1  UNL1       -0.0214
     40 C          13.0418    3.9736    0.0000 C.2     1  UNL1        0.3047
     41 C          14.0203    4.1799    0.0000 C.3     1  UNL1        0.0333
     42 H           7.7908   -2.6711    0.0000 H       1  UNL1        0.0320
     43 H           8.2639    0.1552    0.0000 H       1  UNL1        0.0363
     44 H           8.6126   -2.6235    0.0000 H       1  UNL1        0.0296
     45 H           9.4010   -2.3658    0.0000 H       1  UNL1        0.0296
     46 H           9.7290   -1.8041    0.0000 H       1  UNL1        0.0597
     47 H           7.4500    0.2231    0.0000 H       1  UNL1        0.0347
     48 H           6.6529    0.2231    0.0000 H       1  UNL1        0.0347
     49 H           6.0066   -2.6922    0.0000 H       1  UNL1        0.0357
     50 H           7.2855   -3.8737    0.0000 H       1  UNL1        0.0311
     51 H           7.6766   -3.1778    0.0000 H       1  UNL1        0.0311
     52 H           7.2974   -2.7518    0.0000 H       1  UNL1        0.0235
     53 H           7.9174   -3.3718    0.0000 H       1  UNL1        0.0235
     54 H           8.5374   -2.7518    0.0000 H       1  UNL1        0.0235
     55 H           8.5374    0.2482    0.0000 H       1  UNL1        0.0235
     56 H           7.9174    0.8682    0.0000 H       1  UNL1        0.0235
     57 H           7.2974    0.2482    0.0000 H       1  UNL1        0.0235
     58 H           5.8167   -0.8816    0.0000 H       1  UNL1        0.0567
     59 H           5.1073   -1.8344    0.0000 H       1  UNL1        0.0567
     60 H           4.7568   -1.2279    0.0000 H       1  UNL1        0.0300
     61 H           3.9586   -1.2126    0.0000 H       1  UNL1        0.0300
     62 H           6.1718   -4.4411    0.0000 H       1  UNL1        0.0572
     63 H           2.8608   -2.5274    0.0000 H       1  UNL1        0.0673
     64 H          10.7573   -1.7888    0.0000 H       1  UNL1        0.2098
     65 H           8.4164    1.4034    0.0000 H       1  UNL1        0.0262
     66 H           7.6345    1.0067    0.0000 H       1  UNL1        0.0262
     67 H           8.0312    0.2248    0.0000 H       1  UNL1        0.0262
     68 H          10.5863    0.6068    0.0000 H       1  UNL1        0.2108
     69 H           3.2972   -4.4100    0.0000 H       1  UNL1        0.0242
     70 H           3.5274   -5.2561    0.0000 H       1  UNL1        0.0242
     71 H           4.3734   -5.0259    0.0000 H       1  UNL1        0.0242
     72 H           4.2995   -5.0262    0.0000 H       1  UNL1        0.0242
     73 H           5.1473   -5.2498    0.0000 H       1  UNL1        0.0242
     74 H           5.3710   -4.4020    0.0000 H       1  UNL1        0.0242
     75 H           4.1226   -0.4955    0.0000 H       1  UNL1        0.2094
     76 H          10.8776    1.1987    0.0000 H       1  UNL1        0.0651
     77 H           2.0000   -2.0163    0.0000 H       1  UNL1        0.2104
     78 H          10.3601    3.0722    0.0000 H       1  UNL1        0.0612
     79 H          12.1531    3.9233    0.0000 H       1  UNL1        0.0271
     80 H          11.4186    4.4021    0.0000 H       1  UNL1        0.0271
     81 H          10.9398    3.6676    0.0000 H       1  UNL1        0.0271
     82 H          11.3522    1.7105    0.0000 H       1  UNL1        0.0271
     83 H          12.0867    1.2317    0.0000 H       1  UNL1        0.0271
     84 H          12.5656    1.9662    0.0000 H       1  UNL1        0.0271
     85 H          14.1482    3.5732    0.0000 H       1  UNL1        0.0342
     86 H          14.6270    4.3077    0.0000 H       1  UNL1        0.0342
     87 H          13.8925    4.7865    0.0000 H       1  UNL1        0.0342
@<TRIPOS>BOND
     1    16     1    1
     2     1    64    1
     3     2    19    2
     4    23     3    1
     5     3    68    1
     6     4    25    1
     7     4    75    1
     8    29     5    1
     9     5    77    1
    10     6    31    2
    11     7    32    2
    12     8    37    1
    13     8    40    1
    14     9    40    2
    15    10    11    1
    16    10    12    1
    17    10    15    1
    18    10    21    1
    19    11    14    1
    20    11    17    1
    21    11    22    1
    22    12    13    1
    23    12    20    1
    24    12    42    1
    25    13    18    1
    26    13    19    1
    27    13    25    1
    28    14    16    1
    29    14    23    1
    30    14    43    1
    31    15    16    1
    32    15    44    1
    33    15    45    1
    34    16    46    1
    35    17    19    1
    36    17    47    1
    37    17    48    1
    38    18    24    1
    39    18    26    1
    40    18    49    1
    41    20    27    1
    42    20    50    1
    43    20    51    1
    44    21    52    1
    45    21    53    1
    46    21    54    1
    47    22    55    1
    48    22    56    1
    49    22    57    1
    50    23    30    1
    51    23    31    1
    52    24    27    2
    53    24    28    1
    54    25    58    1
    55    25    59    1
    56    26    29    1
    57    26    60    1
    58    26    61    1
    59    27    62    1
    60    28    32    1
    61    28    33    1
    62    28    34    1
    63    29    32    1
    64    29    63    1
    65    30    65    1
    66    30    66    1
    67    30    67    1
    68    31    35    1
    69    33    69    1
    70    33    70    1
    71    33    71    1
    72    34    72    1
    73    34    73    1
    74    34    74    1
    75    35    36    2
    76    35    76    1
    77    36    37    1
    78    36    78    1
    79    37    38    1
    80    37    39    1
    81    38    79    1
    82    38    80    1
    83    38    81    1
    84    39    82    1
    85    39    83    1
    86    39    84    1
    87    40    41    1
    88    41    85    1
    89    41    86    1
    90    41    87    1
