@<TRIPOS>MOLECULE
IMPHY003114
 44 46 0 0 0
SMALL
GASTEIGER

@<TRIPOS>ATOM
      1 O           3.7230   -1.6446    0.0000 O.3     1  UNL1       -0.4564
      2 O           4.5447    1.5207    0.0000 O.3     1  UNL1       -0.4608
      3 O           4.8930   -3.2479    0.0000 O.2     1  UNL1       -0.2967
      4 O           2.0000   -1.2125    0.0000 O.2     1  UNL1       -0.2453
      5 O           6.1053    2.2722    0.0000 O.2     1  UNL1       -0.2512
      6 C           5.4786   -1.5709    0.0000 C.3     1  UNL1        0.0668
      7 C           6.3796   -1.1370    0.0000 C.3     1  UNL1       -0.0224
      8 C           4.5777   -1.1370    0.0000 C.3     1  UNL1        0.1260
      9 C           6.6021   -0.1621    0.0000 C.3     1  UNL1       -0.0367
     10 C           4.3551   -0.1621    0.0000 C.3     1  UNL1        0.0653
     11 C           7.0647   -1.8573    0.0000 C.3     1  UNL1       -0.0423
     12 C           5.9786    0.6198    0.0000 C.3     1  UNL1       -0.0121
     13 C           4.9786    0.6198    0.0000 C.3     1  UNL1        0.1137
     14 C           5.6146   -2.5556    0.0000 C.2     1  UNL1        0.1430
     15 C           6.5929   -2.7323    0.0000 C.3     1  UNL1        0.0068
     16 C           4.5777   -2.0048    0.0000 C.3     1  UNL1       -0.0491
     17 C           3.3648   -0.0755    0.0000 C.2     1  UNL1        0.0396
     18 C           7.5770    0.0604    0.0000 C.3     1  UNL1       -0.0620
     19 C           2.9749   -0.9900    0.0000 C.2     1  UNL1        0.3354
     20 C           2.8504    0.7820    0.0000 C.2     1  UNL1       -0.0882
     21 C           5.1081    2.3470    0.0000 C.2     1  UNL1        0.3042
     22 C           4.6742    3.2479    0.0000 C.3     1  UNL1        0.0332
     23 H           7.1993   -0.9119    0.0000 H       1  UNL1        0.0314
     24 H           5.2422   -0.6070    0.0000 H       1  UNL1        0.0751
     25 H           6.8069    0.4231    0.0000 H       1  UNL1        0.0302
     26 H           4.0200    0.6191    0.0000 H       1  UNL1        0.0423
     27 H           7.5765   -2.2073    0.0000 H       1  UNL1        0.0272
     28 H           7.4666   -1.3852    0.0000 H       1  UNL1        0.0272
     29 H           6.5372    0.8888    0.0000 H       1  UNL1        0.0304
     30 H           5.8407    1.2242    0.0000 H       1  UNL1        0.0304
     31 H           5.3085    1.1447    0.0000 H       1  UNL1        0.0741
     32 H           6.4192   -3.3274    0.0000 H       1  UNL1        0.0342
     33 H           7.1665   -2.9676    0.0000 H       1  UNL1        0.0342
     34 H           4.3086   -1.4462    0.0000 H       1  UNL1        0.0240
     35 H           4.0191   -2.2738    0.0000 H       1  UNL1        0.0240
     36 H           4.8467   -2.5634    0.0000 H       1  UNL1        0.0240
     37 H           7.7150   -0.5440    0.0000 H       1  UNL1        0.0233
     38 H           8.1815    0.1984    0.0000 H       1  UNL1        0.0233
     39 H           7.4391    0.6649    0.0000 H       1  UNL1        0.0233
     40 H           3.1514    1.3241    0.0000 H       1  UNL1        0.0540
     41 H           2.2305    0.7717    0.0000 H       1  UNL1        0.0540
     42 H           5.2328    3.5169    0.0000 H       1  UNL1        0.0342
     43 H           4.4052    3.8065    0.0000 H       1  UNL1        0.0342
     44 H           4.1156    2.9789    0.0000 H       1  UNL1        0.0342
@<TRIPOS>BOND
     1     1     8    1
     2     1    19    1
     3    13     2    1
     4     2    21    1
     5     3    14    2
     6     4    19    2
     7     5    21    2
     8     6     7    1
     9     6     8    1
    10     6    14    1
    11     6    16    1
    12     7     9    1
    13     7    11    1
    14     7    23    1
    15     8    10    1
    16     8    24    1
    17     9    12    1
    18     9    18    1
    19     9    25    1
    20    10    13    1
    21    10    17    1
    22    10    26    1
    23    11    15    1
    24    11    27    1
    25    11    28    1
    26    12    13    1
    27    12    29    1
    28    12    30    1
    29    13    31    1
    30    14    15    1
    31    15    32    1
    32    15    33    1
    33    16    34    1
    34    16    35    1
    35    16    36    1
    36    17    19    1
    37    17    20    2
    38    18    37    1
    39    18    38    1
    40    18    39    1
    41    20    40    1
    42    20    41    1
    43    21    22    1
    44    22    42    1
    45    22    43    1
    46    22    44    1
