@<TRIPOS>MOLECULE
IMPHY013946
 45 50 0 0 0
SMALL
GASTEIGER

@<TRIPOS>ATOM
      1 O           4.9820    2.5564    0.0000 O.3     1  UNL1       -0.4272
      2 O           6.3656    1.4424    0.0000 O.3     1  UNL1       -0.3381
      3 O           4.5732   -2.2489    0.0000 O.3     1  UNL1       -0.4520
      4 O           3.1278   -3.0983    0.0000 O.3     1  UNL1       -0.4526
      5 O           8.1944   -0.2137    0.0000 O.3     1  UNL1       -0.4526
      6 O           8.1944   -1.8232    0.0000 O.3     1  UNL1       -0.4526
      7 O           3.3254    3.1977    0.0000 O.2     1  UNL1       -0.2449
      8 C           4.6501    0.9816    0.0000 C.ar    1  UNL1        0.0426
      9 C           4.6501   -0.0184    0.0000 C.ar    1  UNL1        0.0034
     10 C           3.7841   -0.5184    0.0000 C.ar    1  UNL1        0.0358
     11 C           3.7841    1.4816    0.0000 C.ar    1  UNL1        0.0693
     12 C           5.3871    1.6486    0.0000 C.3     1  UNL1        0.2331
     13 C           2.9180   -0.0184    0.0000 C.ar    1  UNL1       -0.0128
     14 C           2.9180    0.9816    0.0000 C.ar    1  UNL1       -0.0394
     15 C           5.5161   -0.5184    0.0000 C.ar    1  UNL1       -0.0130
     16 C           3.8001   -1.5600    0.0000 C.ar    1  UNL1        0.1745
     17 C           3.9933    2.4534    0.0000 C.2     1  UNL1        0.3421
     18 C           2.9021   -2.0877    0.0000 C.ar    1  UNL1        0.1669
     19 C           2.0080   -0.5253    0.0000 C.ar    1  UNL1       -0.0503
     20 C           6.3821   -0.0184    0.0000 C.ar    1  UNL1       -0.0084
     21 C           2.0000   -1.5669    0.0000 C.ar    1  UNL1       -0.0155
     22 C           5.5161   -1.5184    0.0000 C.ar    1  UNL1       -0.0503
     23 C           7.2482   -0.5184    0.0000 C.ar    1  UNL1        0.1668
     24 C           4.1585   -3.1977    0.0000 C.3     1  UNL1        0.2333
     25 C           7.2482   -1.5184    0.0000 C.ar    1  UNL1        0.1663
     26 C           6.3821   -2.0184    0.0000 C.ar    1  UNL1       -0.0156
     27 C           7.0334    2.1867    0.0000 C.3     1  UNL1        0.0492
     28 C           8.7780   -1.0184    0.0000 C.3     1  UNL1        0.2332
     29 C           8.0120    1.9805    0.0000 C.3     1  UNL1       -0.0414
     30 H           5.5489    1.0501    0.0000 H       1  UNL1        0.1114
     31 H           2.3811    1.2916    0.0000 H       1  UNL1        0.0632
     32 H           1.4747   -0.2091    0.0000 H       1  UNL1        0.0625
     33 H           6.3821    0.6016    0.0000 H       1  UNL1        0.0661
     34 H           1.4619   -1.8748    0.0000 H       1  UNL1        0.0655
     35 H           4.9792   -1.8284    0.0000 H       1  UNL1        0.0625
     36 H           4.0344   -3.8051    0.0000 H       1  UNL1        0.1166
     37 H           4.7495   -3.3849    0.0000 H       1  UNL1        0.1166
     38 H           6.3821   -2.6385    0.0000 H       1  UNL1        0.0655
     39 H           7.2647    2.7620    0.0000 H       1  UNL1        0.0558
     40 H           6.5071    2.5144    0.0000 H       1  UNL1        0.0558
     41 H           9.2389   -1.4332    0.0000 H       1  UNL1        0.1166
     42 H           9.2389   -0.6037    0.0000 H       1  UNL1        0.1166
     43 H           7.8841    1.3738    0.0000 H       1  UNL1        0.0252
     44 H           8.6186    1.8526    0.0000 H       1  UNL1        0.0252
     45 H           8.1398    2.5872    0.0000 H       1  UNL1        0.0252
@<TRIPOS>BOND
     1     1    12    1
     2     1    17    1
     3     2    12    1
     4     2    27    1
     5     3    16    1
     6     3    24    1
     7     4    18    1
     8     4    24    1
     9     5    23    1
    10     5    28    1
    11     6    25    1
    12     6    28    1
    13     7    17    2
    14     8     9   ar
    15     8    11   ar
    16     8    12    1
    17     9    10   ar
    18     9    15    1
    19    10    13   ar
    20    10    16   ar
    21    11    14   ar
    22    11    17    1
    23    12    30    1
    24    13    14   ar
    25    13    19   ar
    26    14    31    1
    27    15    20   ar
    28    15    22   ar
    29    16    18   ar
    30    18    21   ar
    31    19    21   ar
    32    19    32    1
    33    20    23   ar
    34    20    33    1
    35    21    34    1
    36    22    26   ar
    37    22    35    1
    38    23    25   ar
    39    24    36    1
    40    24    37    1
    41    25    26   ar
    42    26    38    1
    43    27    29    1
    44    27    39    1
    45    27    40    1
    46    28    41    1
    47    28    42    1
    48    29    43    1
    49    29    44    1
    50    29    45    1
