@<TRIPOS>MOLECULE
IMPHY013643
 57 60 0 0 0
SMALL
GASTEIGER

@<TRIPOS>ATOM
      1 O           6.4874    1.0222    0.0000 O.2     1  UNL1       -0.2744
      2 O           2.6049    0.1444    0.0000 O.3     1  UNL1       -0.5064
      3 O           9.8814   -0.6980    0.0000 O.3     1  UNL1       -0.4646
      4 O           7.8654    1.5237    0.0000 O.2     1  UNL1       -0.5021
      5 O           8.5987   -1.8619    0.0000 O.2     1  UNL1       -0.2452
      6 N           5.2273   -0.7954    0.0000 N.3     1  UNL1       -0.2977
      7 N           5.2273    2.2823    0.0000 N.am    1  UNL1       -0.2843
      8 C           5.5364    0.1556    0.0000 C.3     1  UNL1        0.0292
      9 C           4.7273    0.7434    0.0000 C.3     1  UNL1        0.0938
     10 C           6.5518    0.3879    0.0000 C.3     1  UNL1       -0.0286
     11 C           3.9183    0.1556    0.0000 C.3     1  UNL1       -0.0205
     12 C           7.2547   -0.3808    0.0000 C.3     1  UNL1       -0.0008
     13 C           6.9328   -1.3714    0.0000 C.3     1  UNL1       -0.0213
     14 C           4.2273   -0.7954    0.0000 C.3     1  UNL1        0.0005
     15 C           5.9123   -1.5801    0.0000 C.3     1  UNL1        0.0026
     16 C           3.9183    1.3312    0.0000 C.ar    1  UNL1        0.0317
     17 C           5.5364    1.3312    0.0000 C.2     1  UNL1        0.2295
     18 C           7.5991   -2.1172    0.0000 C.3     1  UNL1       -0.0513
     19 C           4.2273    2.2823    0.0000 C.ar    1  UNL1        0.0411
     20 C           8.2320   -0.1691    0.0000 C.2     1  UNL1        0.0740
     21 C           2.9029    1.0990    0.0000 C.ar    1  UNL1        0.1228
     22 C           7.2864   -3.0670    0.0000 C.3     1  UNL1       -0.0650
     23 C           3.5424    3.0670    0.0000 C.ar    1  UNL1       -0.0400
     24 C           2.2000    1.8677    0.0000 C.ar    1  UNL1       -0.0198
     25 C           8.9040   -0.9097    0.0000 C.2     1  UNL1        0.3381
     26 C           8.5374    0.7831    0.0000 C.2     1  UNL1        0.0943
     27 C           2.5219    2.8583    0.0000 C.ar    1  UNL1       -0.0565
     28 C          10.5534   -1.4386    0.0000 C.3     1  UNL1        0.0820
     29 C           8.1708    2.4759    0.0000 C.3     1  UNL1        0.0780
     30 H           5.7067    0.9884    0.0000 H       1  UNL1        0.0476
     31 H           7.0742    0.7218    0.0000 H       1  UNL1        0.0287
     32 H           6.3122    0.9597    0.0000 H       1  UNL1        0.0287
     33 H           3.6083    0.6926    0.0000 H       1  UNL1        0.0291
     34 H           3.3519   -0.0965    0.0000 H       1  UNL1        0.0291
     35 H           7.6704   -0.8407    0.0000 H       1  UNL1        0.0356
     36 H           7.5395   -1.2437    0.0000 H       1  UNL1        0.0319
     37 H           3.6209   -0.9243    0.0000 H       1  UNL1        0.0427
     38 H           4.2922   -1.4120    0.0000 H       1  UNL1        0.0427
     39 H           5.3824   -1.9019    0.0000 H       1  UNL1        0.0429
     40 H           6.1386   -2.1574    0.0000 H       1  UNL1        0.0429
     41 H           8.1454   -2.4103    0.0000 H       1  UNL1        0.0266
     42 H           7.9827   -1.6301    0.0000 H       1  UNL1        0.0266
     43 H           5.5918    2.7839    0.0000 H       1  UNL1        0.1548
     44 H           6.6975   -2.8732    0.0000 H       1  UNL1        0.0230
     45 H           7.0925   -3.6559    0.0000 H       1  UNL1        0.0230
     46 H           7.8753   -3.2609    0.0000 H       1  UNL1        0.0230
     47 H           3.7408    3.6544    0.0000 H       1  UNL1        0.0636
     48 H           1.5940    1.7364    0.0000 H       1  UNL1        0.0654
     49 H           9.1433    0.9144    0.0000 H       1  UNL1        0.1028
     50 H           2.1088    3.3206    0.0000 H       1  UNL1        0.0619
     51 H           2.0000    0.0085    0.0000 H       1  UNL1        0.2921
     52 H          10.0942   -1.8552    0.0000 H       1  UNL1        0.0661
     53 H          10.9700   -1.8977    0.0000 H       1  UNL1        0.0661
     54 H          11.0125   -1.0219    0.0000 H       1  UNL1        0.0661
     55 H           8.7611    2.2866    0.0000 H       1  UNL1        0.0660
     56 H           8.3601    3.0663    0.0000 H       1  UNL1        0.0660
     57 H           7.5804    2.6652    0.0000 H       1  UNL1        0.0660
@<TRIPOS>BOND
     1     1    17    2
     2     2    21    1
     3     2    51    1
     4     3    25    1
     5     3    28    1
     6     4    26    1
     7     4    29    1
     8     5    25    2
     9     6     8    1
    10     6    14    1
    11     6    15    1
    12     7    17   am
    13     7    19    1
    14     7    43    1
    15     8     9    1
    16     8    10    1
    17     8    30    1
    18     9    11    1
    19     9    16    1
    20     9    17    1
    21    10    12    1
    22    10    31    1
    23    10    32    1
    24    11    14    1
    25    11    33    1
    26    11    34    1
    27    12    13    1
    28    12    20    1
    29    12    35    1
    30    13    15    1
    31    13    18    1
    32    13    36    1
    33    14    37    1
    34    14    38    1
    35    15    39    1
    36    15    40    1
    37    16    19   ar
    38    16    21   ar
    39    18    22    1
    40    18    41    1
    41    18    42    1
    42    19    23   ar
    43    20    25    1
    44    20    26    2
    45    21    24   ar
    46    22    44    1
    47    22    45    1
    48    22    46    1
    49    23    27   ar
    50    23    47    1
    51    24    27   ar
    52    24    48    1
    53    26    49    1
    54    27    50    1
    55    28    52    1
    56    28    53    1
    57    28    54    1
    58    29    55    1
    59    29    56    1
    60    29    57    1
