@<TRIPOS>MOLECULE
IMPHY011127
 42 44 0 0 0
SMALL
GASTEIGER

@<TRIPOS>ATOM
      1 O           6.3580   -0.6193    0.0000 O.2     1  UNL1       -0.4505
      2 O           4.5981   -1.5846    0.0000 O.3     1  UNL1       -0.4884
      3 O           2.8660   -0.5846    0.0000 O.3     1  UNL1       -0.4883
      4 O           2.8660    1.4154    0.0000 O.3     1  UNL1       -0.4884
      5 O           4.5981    2.4154    0.0000 O.3     1  UNL1       -0.5027
      6 O           6.3465    2.4500    0.0000 O.2     1  UNL1       -0.2869
      7 O           7.2564   -2.1054    0.0000 O.3     1  UNL1       -0.5059
      8 O          10.7205   -2.1188    0.0000 O.3     1  UNL1       -0.5066
      9 C           5.4641    0.9154    0.0000 C.ar    1  UNL1        0.1128
     10 C           5.4641   -0.0846    0.0000 C.ar    1  UNL1        0.1881
     11 C           4.5981   -0.5846    0.0000 C.ar    1  UNL1        0.2088
     12 C           4.5981    1.4154    0.0000 C.ar    1  UNL1        0.1770
     13 C           7.2641   -0.1054    0.0000 C.ar    1  UNL1        0.1429
     14 C           3.7320   -0.0846    0.0000 C.ar    1  UNL1        0.2110
     15 C           3.7320    0.9154    0.0000 C.ar    1  UNL1        0.2080
     16 C           6.3580    1.4501    0.0000 C.ar    1  UNL1        0.1969
     17 C           7.2641    0.9362    0.0000 C.ar    1  UNL1        0.0289
     18 C           8.1282   -0.6088    0.0000 C.ar    1  UNL1        0.0590
     19 C           8.1244   -1.6087    0.0000 C.ar    1  UNL1        0.1310
     20 C           8.9962   -0.1121    0.0000 C.ar    1  UNL1       -0.0441
     21 C           8.9884   -2.1121    0.0000 C.ar    1  UNL1        0.0220
     22 C           9.8602   -0.6154    0.0000 C.ar    1  UNL1       -0.0193
     23 C           9.8564   -1.6154    0.0000 C.ar    1  UNL1        0.1204
     24 C           3.7320   -2.0846    0.0000 C.3     1  UNL1        0.0791
     25 C           2.0000   -0.0846    0.0000 C.3     1  UNL1        0.0791
     26 C           2.0000    0.9154    0.0000 C.3     1  UNL1        0.0791
     27 H           7.7998    1.2483    0.0000 H       1  UNL1        0.0693
     28 H           8.9985    0.5079    0.0000 H       1  UNL1        0.0627
     29 H           8.9860   -2.7321    0.0000 H       1  UNL1        0.0691
     30 H          10.3984   -0.3075    0.0000 H       1  UNL1        0.0654
     31 H           4.0611    2.7254    0.0000 H       1  UNL1        0.2923
     32 H           3.4220   -1.5477    0.0000 H       1  UNL1        0.0660
     33 H           3.1951   -2.3946    0.0000 H       1  UNL1        0.0660
     34 H           4.0420   -2.6215    0.0000 H       1  UNL1        0.0660
     35 H           2.3100    0.4523    0.0000 H       1  UNL1        0.0660
     36 H           1.4631    0.2254    0.0000 H       1  UNL1        0.0660
     37 H           1.6900   -0.6215    0.0000 H       1  UNL1        0.0660
     38 H           1.6900    1.4523    0.0000 H       1  UNL1        0.0660
     39 H           1.4631    0.6054    0.0000 H       1  UNL1        0.0660
     40 H           2.3100    0.3785    0.0000 H       1  UNL1        0.0660
     41 H           7.2540   -2.7254    0.0000 H       1  UNL1        0.2922
     42 H          11.2586   -1.8108    0.0000 H       1  UNL1        0.2921
@<TRIPOS>BOND
     1     1    10   ar
     2     1    13   ar
     3     2    11    1
     4     2    24    1
     5     3    14    1
     6     3    25    1
     7     4    15    1
     8     4    26    1
     9     5    12    1
    10     5    31    1
    11     6    16    2
    12     7    19    1
    13     7    41    1
    14     8    23    1
    15     8    42    1
    16     9    10   ar
    17     9    12   ar
    18     9    16   ar
    19    10    11   ar
    20    11    14   ar
    21    12    15   ar
    22    13    17   ar
    23    13    18    1
    24    14    15   ar
    25    16    17   ar
    26    17    27    1
    27    18    19   ar
    28    18    20   ar
    29    19    21   ar
    30    20    22   ar
    31    20    28    1
    32    21    23   ar
    33    21    29    1
    34    22    23   ar
    35    22    30    1
    36    24    32    1
    37    24    33    1
    38    24    34    1
    39    25    35    1
    40    25    36    1
    41    25    37    1
    42    26    38    1
    43    26    39    1
    44    26    40    1
