@<TRIPOS>MOLECULE
IMPHY013084
 47 50 0 0 0
SMALL
GASTEIGER

@<TRIPOS>ATOM
      1 O           2.8641   -1.5949    0.0000 O.2     1  UNL1       -0.4919
      2 O           4.6380   -2.6190    0.0000 O.2     1  UNL1       -0.2888
      3 O           7.2645   -1.0844    0.0000 O.3     1  UNL1       -0.5031
      4 O           9.0462   -0.0739    0.0000 O.3     1  UNL1       -0.4914
      5 N           4.7429    1.9451    0.0000 N.3     1  UNL1       -0.2953
      6 C           5.5161   -0.0498    0.0000 C.3     1  UNL1        0.0299
      7 C           4.6501    0.4502    0.0000 C.3     1  UNL1        0.0541
      8 C           6.7643    0.7781    0.0000 C.3     1  UNL1       -0.0280
      9 C           4.6501    1.4502    0.0000 C.3     1  UNL1       -0.0259
     10 C           6.2230    2.1747    0.0000 C.3     1  UNL1        0.0003
     11 C           5.5322   -1.0913    0.0000 C.3     1  UNL1        0.0253
     12 C           6.3821    0.4502    0.0000 C.ar    1  UNL1        0.0095
     13 C           3.7401   -0.0566    0.0000 C.2     1  UNL1       -0.0178
     14 C           5.5161    1.9502    0.0000 C.3     1  UNL1       -0.0253
     15 C           6.3821    1.4502    0.0000 C.ar    1  UNL1       -0.0398
     16 C           4.6341   -1.6191    0.0000 C.2     1  UNL1        0.1979
     17 C           3.7320   -1.0982    0.0000 C.2     1  UNL1        0.1602
     18 C           4.0041    2.6190    0.0000 C.3     1  UNL1       -0.0119
     19 C           7.2761   -0.0844    0.0000 C.ar    1  UNL1        0.1626
     20 C           7.2761    1.9849    0.0000 C.ar    1  UNL1       -0.0546
     21 C           8.1821    0.4294    0.0000 C.ar    1  UNL1        0.1616
     22 C           8.1821    1.4710    0.0000 C.ar    1  UNL1       -0.0160
     23 C           2.0000   -1.0916    0.0000 C.3     1  UNL1        0.0789
     24 C           9.9142    0.4227    0.0000 C.3     1  UNL1        0.0790
     25 H           7.0690    0.2381    0.0000 H       1  UNL1        0.0287
     26 H           7.3248    1.0431    0.0000 H       1  UNL1        0.0287
     27 H           4.4380    2.0328    0.0000 H       1  UNL1        0.0290
     28 H           4.0395    1.3426    0.0000 H       1  UNL1        0.0290
     29 H           6.8158    2.3566    0.0000 H       1  UNL1        0.0427
     30 H           6.0842    2.7789    0.0000 H       1  UNL1        0.0427
     31 H           5.7502   -1.6717    0.0000 H       1  UNL1        0.0355
     32 H           6.1413   -0.9758    0.0000 H       1  UNL1        0.0355
     33 H           3.2068    0.2596    0.0000 H       1  UNL1        0.0628
     34 H           5.9146    2.4252    0.0000 H       1  UNL1        0.0314
     35 H           5.1176    2.4252    0.0000 H       1  UNL1        0.0314
     36 H           4.4219    3.0771    0.0000 H       1  UNL1        0.0391
     37 H           3.5460    3.0369    0.0000 H       1  UNL1        0.0391
     38 H           3.5863    2.1610    0.0000 H       1  UNL1        0.0391
     39 H           7.2689    2.6048    0.0000 H       1  UNL1        0.0622
     40 H           8.7179    1.7831    0.0000 H       1  UNL1        0.0655
     41 H           7.7978   -1.4006    0.0000 H       1  UNL1        0.2923
     42 H           2.3121   -0.5558    0.0000 H       1  UNL1        0.0660
     43 H           1.4643   -0.7795    0.0000 H       1  UNL1        0.0660
     44 H           1.6879   -1.6273    0.0000 H       1  UNL1        0.0660
     45 H          10.2221   -0.1154    0.0000 H       1  UNL1        0.0660
     46 H          10.4523    0.7306    0.0000 H       1  UNL1        0.0660
     47 H           9.6062    0.9608    0.0000 H       1  UNL1        0.0660
@<TRIPOS>BOND
     1     1    17    1
     2     1    23    1
     3     2    16    2
     4     3    19    1
     5     3    41    1
     6     4    21    1
     7     4    24    1
     8     7     5    1
     9     5    10    1
    10     5    18    1
    11     6     7    1
    12     6     8    1
    13     6    11    1
    14     6    12    1
    15     7     9    1
    16     7    13    1
    17     8    10    1
    18     8    25    1
    19     8    26    1
    20     9    14    1
    21     9    27    1
    22     9    28    1
    23    10    29    1
    24    10    30    1
    25    11    16    1
    26    11    31    1
    27    11    32    1
    28    12    15   ar
    29    12    19   ar
    30    13    17    2
    31    13    33    1
    32    14    15    1
    33    14    34    1
    34    14    35    1
    35    15    20   ar
    36    16    17    1
    37    18    36    1
    38    18    37    1
    39    18    38    1
    40    19    21   ar
    41    20    22   ar
    42    20    39    1
    43    21    22   ar
    44    22    40    1
    45    23    42    1
    46    23    43    1
    47    23    44    1
    48    24    45    1
    49    24    46    1
    50    24    47    1
