@<TRIPOS>MOLECULE
IMPHY002938
 152 153 0 0 0
SMALL
GASTEIGER

@<TRIPOS>ATOM
      1 O           7.7331    6.3450    0.0000 O.3     1  UNL1       -0.3405
      2 O           4.2690    5.3450    0.0000 O.3     1  UNL1       -0.3405
      3 O           6.0010    5.3450    0.0000 O.3     1  UNL1       -0.3460
      4 O           9.4651    6.3450    0.0000 O.3     1  UNL1       -0.3449
      5 O           6.0010    8.3450    0.0000 O.3     1  UNL1       -0.3865
      6 O           7.7331    9.3450    0.0000 O.3     1  UNL1       -0.3864
      7 O           9.4651    8.3450    0.0000 O.3     1  UNL1       -0.3841
      8 O           6.0010    3.3450    0.0000 O.3     1  UNL1       -0.3841
      9 O           4.2690    2.3450    0.0000 O.3     1  UNL1       -0.3864
     10 O           2.5369    3.3450    0.0000 O.3     1  UNL1       -0.3865
     11 O           2.5369    6.3450    0.0000 O.3     1  UNL1       -0.3924
     12 O          10.3312    3.8450    0.0000 O.3     1  UNL1       -0.4556
     13 O          12.0632    4.8450    0.0000 O.3     1  UNL1       -0.4608
     14 O          12.0632    3.8450    0.0000 O.2     1  UNL1       -0.2508
     15 O          12.9292    6.3450    0.0000 O.2     1  UNL1       -0.2509
     16 C           6.8671    6.8450    0.0000 C.3     1  UNL1        0.1134
     17 C           6.8671    7.8450    0.0000 C.3     1  UNL1        0.1119
     18 C           7.7331    8.3450    0.0000 C.3     1  UNL1        0.1141
     19 C           8.5991    7.8450    0.0000 C.3     1  UNL1        0.1341
     20 C           5.1350    3.8450    0.0000 C.3     1  UNL1        0.1341
     21 C           5.1350    4.8450    0.0000 C.3     1  UNL1        0.1880
     22 C           4.2690    3.3450    0.0000 C.3     1  UNL1        0.1141
     23 C           3.4030    3.8450    0.0000 C.3     1  UNL1        0.1119
     24 C           8.5991    6.8450    0.0000 C.3     1  UNL1        0.1881
     25 C           3.4030    4.8450    0.0000 C.3     1  UNL1        0.1130
     26 C           6.0010    6.3450    0.0000 C.3     1  UNL1        0.0796
     27 C           2.5369    5.3450    0.0000 C.3     1  UNL1        0.0730
     28 C           9.4651    5.3450    0.0000 C.3     1  UNL1        0.0910
     29 C          10.3312    4.8450    0.0000 C.3     1  UNL1        0.1601
     30 C          11.1972    5.3450    0.0000 C.3     1  UNL1        0.1315
     31 C          18.9914    4.8450    0.0000 C.3     1  UNL1       -0.0531
     32 C          18.1254    5.3450    0.0000 C.3     1  UNL1       -0.0531
     33 C          19.8574    5.3450    0.0000 C.3     1  UNL1       -0.0531
     34 C          17.2594    4.8450    0.0000 C.3     1  UNL1       -0.0531
     35 C          16.3933    5.3450    0.0000 C.3     1  UNL1       -0.0530
     36 C          20.7235    4.8450    0.0000 C.3     1  UNL1       -0.0531
     37 C          15.5273    4.8450    0.0000 C.3     1  UNL1       -0.0526
     38 C          11.1972    3.3450    0.0000 C.2     1  UNL1        0.3075
     39 C          21.5895    5.3450    0.0000 C.3     1  UNL1       -0.0531
     40 C          14.6613    5.3450    0.0000 C.3     1  UNL1       -0.0430
     41 C          22.4555    4.8450    0.0000 C.3     1  UNL1       -0.0531
     42 C          11.1972    2.3450    0.0000 C.3     1  UNL1        0.0450
     43 C          13.7953    4.8450    0.0000 C.3     1  UNL1        0.0449
     44 C          12.9292    5.3450    0.0000 C.2     1  UNL1        0.3072
     45 C          23.3215    5.3450    0.0000 C.3     1  UNL1       -0.0531
     46 C          12.0632    1.8450    0.0000 C.3     1  UNL1       -0.0430
     47 C          12.0632    0.8450    0.0000 C.3     1  UNL1       -0.0526
     48 C          24.1876    4.8450    0.0000 C.3     1  UNL1       -0.0533
     49 C          12.9292    0.3450    0.0000 C.3     1  UNL1       -0.0530
     50 C          12.9292   -0.6550    0.0000 C.3     1  UNL1       -0.0528
     51 C          25.0536    5.3450    0.0000 C.3     1  UNL1       -0.0559
     52 C          13.7953   -1.1550    0.0000 C.3     1  UNL1       -0.0496
     53 C          25.9196    4.8450    0.0000 C.3     1  UNL1       -0.0653
     54 C          13.7953   -2.1550    0.0000 C.3     1  UNL1       -0.0348
     55 C          14.6613   -2.6550    0.0000 C.2     1  UNL1       -0.0876
     56 C          14.6613   -3.6550    0.0000 C.2     1  UNL1       -0.0842
     57 C          15.5273   -4.1550    0.0000 C.3     1  UNL1       -0.0165
     58 C          15.5273   -5.1550    0.0000 C.2     1  UNL1       -0.0842
     59 C          16.3933   -6.6550    0.0000 C.3     1  UNL1       -0.0348
     60 C          17.2594   -7.1550    0.0000 C.3     1  UNL1       -0.0496
     61 C          16.3933   -5.6550    0.0000 C.2     1  UNL1       -0.0876
     62 C          17.2594   -8.1550    0.0000 C.3     1  UNL1       -0.0530
     63 C          18.1254   -8.6550    0.0000 C.3     1  UNL1       -0.0559
     64 C          18.1254   -9.6550    0.0000 C.3     1  UNL1       -0.0653
     65 H           6.8671    6.2250    0.0000 H       1  UNL1        0.0647
     66 H           6.3301    7.5350    0.0000 H       1  UNL1        0.0647
     67 H           7.1962    8.6550    0.0000 H       1  UNL1        0.0648
     68 H           9.1360    7.5350    0.0000 H       1  UNL1        0.0671
     69 H           5.1350    3.2250    0.0000 H       1  UNL1        0.0671
     70 H           5.1350    5.4650    0.0000 H       1  UNL1        0.0937
     71 H           3.7320    3.0350    0.0000 H       1  UNL1        0.0648
     72 H           2.8660    4.1550    0.0000 H       1  UNL1        0.0647
     73 H           8.5991    6.2250    0.0000 H       1  UNL1        0.0937
     74 H           3.4030    5.4650    0.0000 H       1  UNL1        0.0647
     75 H           5.7890    6.9276    0.0000 H       1  UNL1        0.0587
     76 H           5.3905    6.2373    0.0000 H       1  UNL1        0.0587
     77 H           1.9264    5.4527    0.0000 H       1  UNL1        0.0584
     78 H           2.3249    4.7624    0.0000 H       1  UNL1        0.0584
     79 H           6.0010    8.9650    0.0000 H       1  UNL1        0.2100
     80 H           8.2700    9.6550    0.0000 H       1  UNL1        0.2100
     81 H          10.0021    8.0350    0.0000 H       1  UNL1        0.2101
     82 H           6.5380    3.6550    0.0000 H       1  UNL1        0.2101
     83 H           3.7320    2.0350    0.0000 H       1  UNL1        0.2100
     84 H           2.0000    3.6550    0.0000 H       1  UNL1        0.2100
     85 H           8.8546    5.4527    0.0000 H       1  UNL1        0.0599
     86 H           9.2531    4.7624    0.0000 H       1  UNL1        0.0599
     87 H           9.7942    4.5350    0.0000 H       1  UNL1        0.0792
     88 H           2.0000    6.6550    0.0000 H       1  UNL1        0.2095
     89 H          11.5957    5.8200    0.0000 H       1  UNL1        0.0736
     90 H          10.7987    5.8200    0.0000 H       1  UNL1        0.0736
     91 H          18.5929    4.3700    0.0000 H       1  UNL1        0.0265
     92 H          19.3899    4.3700    0.0000 H       1  UNL1        0.0265
     93 H          18.5239    5.8200    0.0000 H       1  UNL1        0.0265
     94 H          17.7269    5.8200    0.0000 H       1  UNL1        0.0265
     95 H          20.2560    5.8200    0.0000 H       1  UNL1        0.0265
     96 H          19.4589    5.8200    0.0000 H       1  UNL1        0.0265
     97 H          16.8608    4.3700    0.0000 H       1  UNL1        0.0265
     98 H          17.6579    4.3700    0.0000 H       1  UNL1        0.0265
     99 H          20.3249    4.3700    0.0000 H       1  UNL1        0.0265
    100 H          21.1220    4.3700    0.0000 H       1  UNL1        0.0265
    101 H          16.7919    5.8200    0.0000 H       1  UNL1        0.0265
    102 H          15.9948    5.8200    0.0000 H       1  UNL1        0.0265
    103 H          15.1288    4.3700    0.0000 H       1  UNL1        0.0265
    104 H          15.9258    4.3700    0.0000 H       1  UNL1        0.0265
    105 H          21.9880    5.8200    0.0000 H       1  UNL1        0.0265
    106 H          21.1910    5.8200    0.0000 H       1  UNL1        0.0265
    107 H          15.0598    5.8200    0.0000 H       1  UNL1        0.0270
    108 H          14.2628    5.8200    0.0000 H       1  UNL1        0.0270
    109 H          22.0570    4.3700    0.0000 H       1  UNL1        0.0265
    110 H          22.8540    4.3700    0.0000 H       1  UNL1        0.0265
    111 H          13.3967    4.3700    0.0000 H       1  UNL1        0.0377
    112 H          14.1938    4.3700    0.0000 H       1  UNL1        0.0377
    113 H          10.5866    2.4527    0.0000 H       1  UNL1        0.0377
    114 H          10.9851    1.7624    0.0000 H       1  UNL1        0.0377
    115 H          23.7201    5.8200    0.0000 H       1  UNL1        0.0265
    116 H          22.9230    5.8200    0.0000 H       1  UNL1        0.0265
    117 H          12.6738    1.7373    0.0000 H       1  UNL1        0.0270
    118 H          12.2753    2.4276    0.0000 H       1  UNL1        0.0270
    119 H          11.4526    0.9527    0.0000 H       1  UNL1        0.0265
    120 H          11.8512    0.2624    0.0000 H       1  UNL1        0.0265
    121 H          23.7890    4.3700    0.0000 H       1  UNL1        0.0265
    122 H          24.5861    4.3700    0.0000 H       1  UNL1        0.0265
    123 H          13.5398    0.2373    0.0000 H       1  UNL1        0.0265
    124 H          13.1413    0.9276    0.0000 H       1  UNL1        0.0265
    125 H          12.3187   -0.5473    0.0000 H       1  UNL1        0.0265
    126 H          12.7172   -1.2376    0.0000 H       1  UNL1        0.0265
    127 H          25.4521    5.8200    0.0000 H       1  UNL1        0.0263
    128 H          24.6551    5.8200    0.0000 H       1  UNL1        0.0263
    129 H          14.4058   -1.2627    0.0000 H       1  UNL1        0.0268
    130 H          14.0073   -0.5724    0.0000 H       1  UNL1        0.0268
    131 H          25.6096    4.3081    0.0000 H       1  UNL1        0.0230
    132 H          26.4566    4.5350    0.0000 H       1  UNL1        0.0230
    133 H          26.2296    5.3819    0.0000 H       1  UNL1        0.0230
    134 H          13.1847   -2.0473    0.0000 H       1  UNL1        0.0307
    135 H          13.5832   -2.7376    0.0000 H       1  UNL1        0.0307
    136 H          15.1982   -2.3450    0.0000 H       1  UNL1        0.0569
    137 H          14.1244   -3.9650    0.0000 H       1  UNL1        0.0572
    138 H          16.1379   -4.2627    0.0000 H       1  UNL1        0.0350
    139 H          15.7394   -3.5724    0.0000 H       1  UNL1        0.0350
    140 H          14.9904   -5.4650    0.0000 H       1  UNL1        0.0572
    141 H          15.7828   -6.5473    0.0000 H       1  UNL1        0.0307
    142 H          16.1813   -7.2376    0.0000 H       1  UNL1        0.0307
    143 H          17.8699   -7.2627    0.0000 H       1  UNL1        0.0268
    144 H          17.4714   -6.5724    0.0000 H       1  UNL1        0.0268
    145 H          16.9303   -5.3450    0.0000 H       1  UNL1        0.0569
    146 H          16.6488   -8.0473    0.0000 H       1  UNL1        0.0265
    147 H          17.0473   -8.7376    0.0000 H       1  UNL1        0.0265
    148 H          18.7360   -8.7627    0.0000 H       1  UNL1        0.0263
    149 H          18.3374   -8.0724    0.0000 H       1  UNL1        0.0263
    150 H          17.5054   -9.6550    0.0000 H       1  UNL1        0.0230
    151 H          18.1254  -10.2750    0.0000 H       1  UNL1        0.0230
    152 H          18.7454   -9.6550    0.0000 H       1  UNL1        0.0230
@<TRIPOS>BOND
     1     1    16    1
     2     1    24    1
     3     2    21    1
     4     2    25    1
     5     3    21    1
     6     3    26    1
     7     4    24    1
     8     4    28    1
     9     5    17    1
    10     5    79    1
    11     6    18    1
    12     6    80    1
    13     7    19    1
    14     7    81    1
    15     8    20    1
    16     8    82    1
    17     9    22    1
    18     9    83    1
    19    10    23    1
    20    10    84    1
    21    11    27    1
    22    11    88    1
    23    12    29    1
    24    12    38    1
    25    13    30    1
    26    13    44    1
    27    14    38    2
    28    15    44    2
    29    16    17    1
    30    16    26    1
    31    16    65    1
    32    17    18    1
    33    17    66    1
    34    18    19    1
    35    18    67    1
    36    19    24    1
    37    19    68    1
    38    20    21    1
    39    20    22    1
    40    20    69    1
    41    21    70    1
    42    22    23    1
    43    22    71    1
    44    23    25    1
    45    23    72    1
    46    24    73    1
    47    25    27    1
    48    25    74    1
    49    26    75    1
    50    26    76    1
    51    27    77    1
    52    27    78    1
    53    28    29    1
    54    28    85    1
    55    28    86    1
    56    29    30    1
    57    29    87    1
    58    30    89    1
    59    30    90    1
    60    31    32    1
    61    31    33    1
    62    31    91    1
    63    31    92    1
    64    32    34    1
    65    32    93    1
    66    32    94    1
    67    33    36    1
    68    33    95    1
    69    33    96    1
    70    34    35    1
    71    34    97    1
    72    34    98    1
    73    35    37    1
    74    35   101    1
    75    35   102    1
    76    36    39    1
    77    36    99    1
    78    36   100    1
    79    37    40    1
    80    37   103    1
    81    37   104    1
    82    38    42    1
    83    39    41    1
    84    39   105    1
    85    39   106    1
    86    40    43    1
    87    40   107    1
    88    40   108    1
    89    41    45    1
    90    41   109    1
    91    41   110    1
    92    42    46    1
    93    42   113    1
    94    42   114    1
    95    43    44    1
    96    43   111    1
    97    43   112    1
    98    45    48    1
    99    45   115    1
   100    45   116    1
   101    46    47    1
   102    46   117    1
   103    46   118    1
   104    47    49    1
   105    47   119    1
   106    47   120    1
   107    48    51    1
   108    48   121    1
   109    48   122    1
   110    49    50    1
   111    49   123    1
   112    49   124    1
   113    50    52    1
   114    50   125    1
   115    50   126    1
   116    51    53    1
   117    51   127    1
   118    51   128    1
   119    52    54    1
   120    52   129    1
   121    52   130    1
   122    53   131    1
   123    53   132    1
   124    53   133    1
   125    54    55    1
   126    54   134    1
   127    54   135    1
   128    55    56    2
   129    55   136    1
   130    56    57    1
   131    56   137    1
   132    57    58    1
   133    57   138    1
   134    57   139    1
   135    58    61    2
   136    58   140    1
   137    59    60    1
   138    59    61    1
   139    59   141    1
   140    59   142    1
   141    60    62    1
   142    60   143    1
   143    60   144    1
   144    61   145    1
   145    62    63    1
   146    62   146    1
   147    62   147    1
   148    63    64    1
   149    63   148    1
   150    63   149    1
   151    64   150    1
   152    64   151    1
   153    64   152    1
