@<TRIPOS>MOLECULE
IMPHY007094
 30 31 0 0 0
SMALL
GASTEIGER

@<TRIPOS>ATOM
      1 O           2.5369   -2.9050    0.0000 O.3     1  UNL1       -0.5033
      2 O           3.4030    3.5950    0.0000 O.3     1  UNL1       -0.5066
      3 O           6.8671    3.5950    0.0000 O.3     1  UNL1       -0.5066
      4 O           4.2690   -3.9050    0.0000 O.3     1  UNL1       -0.5033
      5 C           5.1350    1.5950    0.0000 C.ar    1  UNL1       -0.0181
      6 C           4.2690   -0.9050    0.0000 C.ar    1  UNL1       -0.0213
      7 C           5.1350    0.5950    0.0000 C.2     1  UNL1       -0.0538
      8 C           4.2690    0.0950    0.0000 C.2     1  UNL1       -0.0539
      9 C           3.4030   -1.4050    0.0000 C.ar    1  UNL1       -0.0094
     10 C           6.0010    2.0950    0.0000 C.ar    1  UNL1       -0.0128
     11 C           4.2690    2.0950    0.0000 C.ar    1  UNL1       -0.0128
     12 C           5.1350   -1.4050    0.0000 C.ar    1  UNL1       -0.0509
     13 C           3.4030   -2.4050    0.0000 C.ar    1  UNL1        0.1588
     14 C           4.2690    3.0950    0.0000 C.ar    1  UNL1        0.1209
     15 C           6.0010    3.0950    0.0000 C.ar    1  UNL1        0.1209
     16 C           5.1350   -2.4050    0.0000 C.ar    1  UNL1       -0.0160
     17 C           4.2690   -2.9050    0.0000 C.ar    1  UNL1        0.1582
     18 C           5.1350    3.5950    0.0000 C.ar    1  UNL1        0.0213
     19 H           5.6720    0.2850    0.0000 H       1  UNL1        0.0624
     20 H           3.7320    0.4050    0.0000 H       1  UNL1        0.0624
     21 H           2.8660   -1.0950    0.0000 H       1  UNL1        0.0661
     22 H           6.5380    1.7850    0.0000 H       1  UNL1        0.0660
     23 H           3.7320    1.7850    0.0000 H       1  UNL1        0.0660
     24 H           5.6720   -1.0950    0.0000 H       1  UNL1        0.0625
     25 H           5.6720   -2.7150    0.0000 H       1  UNL1        0.0655
     26 H           5.1350    4.2150    0.0000 H       1  UNL1        0.0691
     27 H           2.0000   -2.5950    0.0000 H       1  UNL1        0.2923
     28 H           3.4030    4.2150    0.0000 H       1  UNL1        0.2921
     29 H           6.8671    4.2150    0.0000 H       1  UNL1        0.2921
     30 H           4.8059   -4.2150    0.0000 H       1  UNL1        0.2923
@<TRIPOS>BOND
     1     1    13    1
     2     1    27    1
     3     2    14    1
     4     2    28    1
     5     3    15    1
     6     3    29    1
     7     4    17    1
     8     4    30    1
     9     5     7    1
    10     5    10   ar
    11     5    11   ar
    12     6     8    1
    13     6     9   ar
    14     6    12   ar
    15     7     8    2
    16     7    19    1
    17     8    20    1
    18     9    13   ar
    19     9    21    1
    20    10    15   ar
    21    10    22    1
    22    11    14   ar
    23    11    23    1
    24    12    16   ar
    25    12    24    1
    26    13    17   ar
    27    14    18   ar
    28    15    18   ar
    29    16    17   ar
    30    16    25    1
    31    18    26    1
