@<TRIPOS>MOLECULE
IMPHY001151
 22 24 0 0 0
SMALL
GASTEIGER

@<TRIPOS>ATOM
      1 O           4.5274    1.6618    0.0000 O.2     1  UNL1       -0.2866
      2 C           5.0274   -0.8771    0.0000 C.ar    1  UNL1       -0.0064
      3 C           4.0274   -0.8771    0.0000 C.ar    1  UNL1       -0.0064
      4 C           5.3364    0.0740    0.0000 C.ar    1  UNL1        0.0300
      5 C           3.7183    0.0740    0.0000 C.ar    1  UNL1        0.0300
      6 C           4.5274    0.6618    0.0000 C.2     1  UNL1        0.1943
      7 C           5.7123   -1.6618    0.0000 C.ar    1  UNL1       -0.0533
      8 C           3.3424   -1.6618    0.0000 C.ar    1  UNL1       -0.0533
      9 C           6.3518    0.3063    0.0000 C.ar    1  UNL1       -0.0503
     10 C           2.7029    0.3063    0.0000 C.ar    1  UNL1       -0.0503
     11 C           2.3219   -1.4531    0.0000 C.ar    1  UNL1       -0.0611
     12 C           6.7328   -1.4531    0.0000 C.ar    1  UNL1       -0.0611
     13 C           7.0547   -0.4624    0.0000 C.ar    1  UNL1       -0.0611
     14 C           2.0000   -0.4624    0.0000 C.ar    1  UNL1       -0.0611
     15 H           5.5139   -2.2492    0.0000 H       1  UNL1        0.0624
     16 H           3.5408   -2.2492    0.0000 H       1  UNL1        0.0624
     17 H           6.5365    0.8981    0.0000 H       1  UNL1        0.0625
     18 H           2.5182    0.8981    0.0000 H       1  UNL1        0.0625
     19 H           7.1459   -1.9154    0.0000 H       1  UNL1        0.0618
     20 H           1.9088   -1.9154    0.0000 H       1  UNL1        0.0618
     21 H           7.6607   -0.3312    0.0000 H       1  UNL1        0.0618
     22 H           1.3940   -0.3312    0.0000 H       1  UNL1        0.0618
@<TRIPOS>BOND
     1     1     6    2
     2     2     3    1
     3     2     4   ar
     4     2     7   ar
     5     3     5   ar
     6     3     8   ar
     7     4     6    1
     8     4     9   ar
     9     5     6    1
    10     5    10   ar
    11     7    12   ar
    12     7    15    1
    13     8    11   ar
    14     8    16    1
    15     9    13   ar
    16     9    17    1
    17    10    14   ar
    18    10    18    1
    19    11    14   ar
    20    11    20    1
    21    12    13   ar
    22    12    19    1
    23    13    21    1
    24    14    22    1
