@<TRIPOS>MOLECULE
IMPHY012777
 37 39 0 0 0
SMALL
GASTEIGER

@<TRIPOS>ATOM
      1 O           3.9061    0.7500    0.0000 O.3     1  UNL1       -0.4808
      2 O           8.3022    0.2122    0.0000 O.3     1  UNL1       -0.4930
      3 O           5.6660   -2.2846    0.0000 O.2     1  UNL1       -0.2669
      4 N           6.5320   -0.7846    0.0000 N.ar    1  UNL1       -0.3074
      5 C           3.0000    0.2362    0.0000 C.3     1  UNL1        0.1235
      6 C           4.8000    0.2154    0.0000 C.ar    1  UNL1        0.1432
      7 C           4.8000   -0.7846    0.0000 C.ar    1  UNL1        0.0816
      8 C           5.6660    0.7154    0.0000 C.ar    1  UNL1        0.0446
      9 C           6.5320    0.2154    0.0000 C.ar    1  UNL1        0.0972
     10 C           3.0000   -0.8054    0.0000 C.2     1  UNL1       -0.0407
     11 C           3.9061   -1.3193    0.0000 C.2     1  UNL1       -0.0461
     12 C           5.6660   -1.2846    0.0000 C.ar    1  UNL1        0.2623
     13 C           2.0000    0.2400    0.0000 C.3     1  UNL1       -0.0215
     14 C           2.5033    1.1041    0.0000 C.3     1  UNL1       -0.0215
     15 C           7.4420    0.7222    0.0000 C.ar    1  UNL1        0.1442
     16 C           5.6500    1.7569    0.0000 C.ar    1  UNL1       -0.0489
     17 C           7.3981   -1.2846    0.0000 C.3     1  UNL1        0.0154
     18 C           7.4501    1.7638    0.0000 C.ar    1  UNL1       -0.0179
     19 C           6.5480    2.2846    0.0000 C.ar    1  UNL1       -0.0575
     20 C           9.1740    0.7022    0.0000 C.3     1  UNL1        0.0789
     21 H           2.4643   -1.1175    0.0000 H       1  UNL1        0.0611
     22 H           3.9132   -1.9392    0.0000 H       1  UNL1        0.0624
     23 H           2.0024    0.8600    0.0000 H       1  UNL1        0.0271
     24 H           1.3800    0.2424    0.0000 H       1  UNL1        0.0271
     25 H           1.9976   -0.3800    0.0000 H       1  UNL1        0.0271
     26 H           3.0415    1.4121    0.0000 H       1  UNL1        0.0271
     27 H           2.1954    1.6423    0.0000 H       1  UNL1        0.0271
     28 H           1.9652    0.7962    0.0000 H       1  UNL1        0.0271
     29 H           5.1095    2.0606    0.0000 H       1  UNL1        0.0625
     30 H           7.0881   -1.8216    0.0000 H       1  UNL1        0.0457
     31 H           7.9350   -1.5946    0.0000 H       1  UNL1        0.0457
     32 H           7.7081   -0.7477    0.0000 H       1  UNL1        0.0457
     33 H           7.9882    2.0717    0.0000 H       1  UNL1        0.0655
     34 H           6.5456    2.9046    0.0000 H       1  UNL1        0.0619
     35 H           9.4778    0.1617    0.0000 H       1  UNL1        0.0660
     36 H           9.7145    1.0060    0.0000 H       1  UNL1        0.0660
     37 H           8.8702    1.2427    0.0000 H       1  UNL1        0.0660
@<TRIPOS>BOND
     1     1     5    1
     2     1     6    1
     3     2    15    1
     4     2    20    1
     5     3    12    2
     6     4     9   ar
     7     4    12   ar
     8     4    17    1
     9     5    10    1
    10     5    13    1
    11     5    14    1
    12     6     7   ar
    13     6     8   ar
    14     7    11    1
    15     7    12   ar
    16     8     9   ar
    17     8    16   ar
    18     9    15   ar
    19    10    11    2
    20    10    21    1
    21    11    22    1
    22    13    23    1
    23    13    24    1
    24    13    25    1
    25    14    26    1
    26    14    27    1
    27    14    28    1
    28    15    18   ar
    29    16    19   ar
    30    16    29    1
    31    17    30    1
    32    17    31    1
    33    17    32    1
    34    18    19   ar
    35    18    33    1
    36    19    34    1
    37    20    35    1
    38    20    36    1
    39    20    37    1
