@<TRIPOS>MOLECULE
IMPHY009871
 26 26 0 0 0
SMALL
GASTEIGER

@<TRIPOS>ATOM
      1 C           2.8660   -1.2500    0.0000 C.3     1  UNL1       -0.0251
      2 C           3.7320   -0.7500    0.0000 C.3     1  UNL1       -0.0430
      3 C           3.7320    0.2500    0.0000 C.3     1  UNL1       -0.0272
      4 C           2.8660    0.7500    0.0000 C.2     1  UNL1       -0.0489
      5 C           2.0000   -0.7500    0.0000 C.2     1  UNL1       -0.0809
      6 C           2.0000    0.2500    0.0000 C.2     1  UNL1       -0.0623
      7 C           2.8660   -2.2500    0.0000 C.3     1  UNL1       -0.0589
      8 C           2.8660    1.7500    0.0000 C.2     1  UNL1       -0.0725
      9 C           3.7320    2.2500    0.0000 C.3     1  UNL1       -0.0435
     10 C           2.0000    2.2500    0.0000 C.3     1  UNL1       -0.0435
     11 H           3.6022   -1.6750    0.0000 H       1  UNL1        0.0340
     12 H           3.9441   -1.3326    0.0000 H       1  UNL1        0.0274
     13 H           4.3426   -0.6423    0.0000 H       1  UNL1        0.0274
     14 H           4.3426    0.1423    0.0000 H       1  UNL1        0.0313
     15 H           3.9441    0.8326    0.0000 H       1  UNL1        0.0313
     16 H           1.4631   -1.0600    0.0000 H       1  UNL1        0.0575
     17 H           1.4631    0.5600    0.0000 H       1  UNL1        0.0617
     18 H           2.2460   -2.2500    0.0000 H       1  UNL1        0.0235
     19 H           2.8660   -2.8700    0.0000 H       1  UNL1        0.0235
     20 H           3.4860   -2.2500    0.0000 H       1  UNL1        0.0235
     21 H           4.0420    1.7131    0.0000 H       1  UNL1        0.0274
     22 H           4.2690    2.5600    0.0000 H       1  UNL1        0.0274
     23 H           3.4220    2.7869    0.0000 H       1  UNL1        0.0274
     24 H           2.3100    2.7869    0.0000 H       1  UNL1        0.0274
     25 H           1.4631    2.5600    0.0000 H       1  UNL1        0.0274
     26 H           1.6900    1.7131    0.0000 H       1  UNL1        0.0274
@<TRIPOS>BOND
     1     1     2    1
     2     1     5    1
     3     1     7    1
     4     1    11    1
     5     2     3    1
     6     2    12    1
     7     2    13    1
     8     3     4    1
     9     3    14    1
    10     3    15    1
    11     4     6    1
    12     4     8    2
    13     5     6    2
    14     5    16    1
    15     6    17    1
    16     7    18    1
    17     7    19    1
    18     7    20    1
    19     8     9    1
    20     8    10    1
    21     9    21    1
    22     9    22    1
    23     9    23    1
    24    10    24    1
    25    10    25    1
    26    10    26    1
