@<TRIPOS>MOLECULE
IMPHY017017
 26 25 0 0 0
SMALL
GASTEIGER

@<TRIPOS>ATOM
      1 O           8.9282   -0.2500    0.0000 O.3     1  UNL1       -0.4679
      2 O           2.8660    0.2500    0.0000 O.3     1  UNL1       -0.4679
      3 O           8.0622    1.2500    0.0000 O.2     1  UNL1       -0.2509
      4 O           3.7320   -1.2500    0.0000 O.2     1  UNL1       -0.2509
      5 C           6.3301    0.2500    0.0000 C.3     1  UNL1       -0.0425
      6 C           5.4641   -0.2500    0.0000 C.3     1  UNL1       -0.0425
      7 C           7.1962   -0.2500    0.0000 C.3     1  UNL1        0.0449
      8 C           4.5981    0.2500    0.0000 C.3     1  UNL1        0.0449
      9 C           8.0622    0.2500    0.0000 C.2     1  UNL1        0.3068
     10 C           3.7320   -0.2500    0.0000 C.2     1  UNL1        0.3068
     11 C           9.7942    0.2500    0.0000 C.3     1  UNL1        0.0817
     12 C           2.0000   -0.2500    0.0000 C.3     1  UNL1        0.0817
     13 H           6.7287    0.7249    0.0000 H       1  UNL1        0.0271
     14 H           5.9316    0.7249    0.0000 H       1  UNL1        0.0271
     15 H           5.0656   -0.7249    0.0000 H       1  UNL1        0.0271
     16 H           5.8626   -0.7249    0.0000 H       1  UNL1        0.0271
     17 H           6.7976   -0.7249    0.0000 H       1  UNL1        0.0377
     18 H           7.5947   -0.7249    0.0000 H       1  UNL1        0.0377
     19 H           4.9966    0.7249    0.0000 H       1  UNL1        0.0377
     20 H           4.1996    0.7249    0.0000 H       1  UNL1        0.0377
     21 H          10.1042   -0.2869    0.0000 H       1  UNL1        0.0661
     22 H          10.3312    0.5600    0.0000 H       1  UNL1        0.0661
     23 H           9.4842    0.7869    0.0000 H       1  UNL1        0.0661
     24 H           1.6900    0.2869    0.0000 H       1  UNL1        0.0661
     25 H           1.4631   -0.5600    0.0000 H       1  UNL1        0.0661
     26 H           2.3100   -0.7869    0.0000 H       1  UNL1        0.0661
@<TRIPOS>BOND
     1     1     9    1
     2     1    11    1
     3     2    10    1
     4     2    12    1
     5     3     9    2
     6     4    10    2
     7     5     6    1
     8     5     7    1
     9     5    13    1
    10     5    14    1
    11     6     8    1
    12     6    15    1
    13     6    16    1
    14     7     9    1
    15     7    17    1
    16     7    18    1
    17     8    10    1
    18     8    19    1
    19     8    20    1
    20    11    21    1
    21    11    22    1
    22    11    23    1
    23    12    24    1
    24    12    25    1
    25    12    26    1
