@<TRIPOS>MOLECULE
IMPHY000151
 43 46 0 0 0
SMALL
GASTEIGER

@<TRIPOS>ATOM
      1 O           6.3624    1.1555    0.0000 O.3     1  UNL1       -0.4895
      2 O           9.8984    1.1276    0.0000 O.3     1  UNL1       -0.4815
      3 O           6.3740   -1.9138    0.0000 O.2     1  UNL1       -0.2912
      4 O           3.7205    0.5933    0.0000 O.3     1  UNL1       -0.5064
      5 O           2.0000   -2.4134    0.0000 O.3     1  UNL1       -0.5066
      6 C           5.4564   -0.4000    0.0000 C.3     1  UNL1        0.0846
      7 C           9.9065    2.1692    0.0000 C.3     1  UNL1        0.1235
      8 C           7.2564    0.6208    0.0000 C.ar    1  UNL1        0.1416
      9 C           5.4564    0.6416    0.0000 C.3     1  UNL1        0.1036
     10 C           7.2564   -0.3792    0.0000 C.ar    1  UNL1        0.0605
     11 C           8.1224    1.1208    0.0000 C.ar    1  UNL1        0.0588
     12 C           6.3624   -0.9139    0.0000 C.2     1  UNL1        0.1774
     13 C           8.9884    0.6208    0.0000 C.ar    1  UNL1        0.1324
     14 C           4.5923   -0.9033    0.0000 C.ar    1  UNL1        0.0081
     15 C           9.0044    2.6901    0.0000 C.2     1  UNL1       -0.0408
     16 C           8.1063    2.1623    0.0000 C.2     1  UNL1       -0.0478
     17 C           8.1224   -0.8792    0.0000 C.ar    1  UNL1       -0.0442
     18 C           8.9884   -0.3792    0.0000 C.ar    1  UNL1       -0.0184
     19 C          10.4098    3.0333    0.0000 C.3     1  UNL1       -0.0215
     20 C          10.9065    2.1654    0.0000 C.3     1  UNL1       -0.0215
     21 C           3.7243   -0.4067    0.0000 C.ar    1  UNL1        0.1243
     22 C           4.5961   -1.9033    0.0000 C.ar    1  UNL1       -0.0509
     23 C           2.8602   -0.9100    0.0000 C.ar    1  UNL1        0.0216
     24 C           3.7320   -2.4067    0.0000 C.ar    1  UNL1       -0.0197
     25 C           2.8641   -1.9100    0.0000 C.ar    1  UNL1        0.1203
     26 H           5.4600   -1.0200    0.0000 H       1  UNL1        0.0464
     27 H           5.2473    1.2253    0.0000 H       1  UNL1        0.0707
     28 H           4.8455    0.5355    0.0000 H       1  UNL1        0.0707
     29 H           9.0020    3.3101    0.0000 H       1  UNL1        0.0611
     30 H           7.5659    2.4661    0.0000 H       1  UNL1        0.0624
     31 H           8.1224   -1.4992    0.0000 H       1  UNL1        0.0627
     32 H           9.5254   -0.6892    0.0000 H       1  UNL1        0.0654
     33 H          10.9455    2.7213    0.0000 H       1  UNL1        0.0271
     34 H          10.9041    1.5454    0.0000 H       1  UNL1        0.0271
     35 H          11.5264    2.1630    0.0000 H       1  UNL1        0.0271
     36 H          10.9088    2.7854    0.0000 H       1  UNL1        0.0271
     37 H          10.7219    3.5691    0.0000 H       1  UNL1        0.0271
     38 H           9.8740    3.3454    0.0000 H       1  UNL1        0.0271
     39 H           5.1343   -2.2113    0.0000 H       1  UNL1        0.0623
     40 H           2.3221   -0.6021    0.0000 H       1  UNL1        0.0691
     41 H           3.7344   -3.0267    0.0000 H       1  UNL1        0.0654
     42 H           3.1824    0.9012    0.0000 H       1  UNL1        0.2921
     43 H           2.0024   -3.0333    0.0000 H       1  UNL1        0.2921
@<TRIPOS>BOND
     1     1     8    1
     2     1     9    1
     3     2     7    1
     4     2    13    1
     5     3    12    2
     6     4    21    1
     7     4    42    1
     8     5    25    1
     9     5    43    1
    10     6     9    1
    11     6    12    1
    12     6    14    1
    13     6    26    1
    14     7    15    1
    15     7    19    1
    16     7    20    1
    17     8    10   ar
    18     8    11   ar
    19     9    27    1
    20     9    28    1
    21    10    12    1
    22    10    17   ar
    23    11    13   ar
    24    11    16    1
    25    13    18   ar
    26    14    21   ar
    27    14    22   ar
    28    15    16    2
    29    15    29    1
    30    16    30    1
    31    17    18   ar
    32    17    31    1
    33    18    32    1
    34    19    33    1
    35    19    37    1
    36    19    38    1
    37    20    34    1
    38    20    35    1
    39    20    36    1
    40    21    23   ar
    41    22    24   ar
    42    22    39    1
    43    23    25   ar
    44    23    40    1
    45    24    25   ar
    46    24    41    1
