@<TRIPOS>MOLECULE
IMPHY003643
 25 25 0 0 0
SMALL
GASTEIGER

@<TRIPOS>ATOM
      1 O           4.2690    1.4400    0.0000 O.3     1  UNL1       -0.3459
      2 O           4.2690   -1.5600    0.0000 O.3     1  UNL1       -0.3770
      3 O           2.5369   -0.5600    0.0000 O.3     1  UNL1       -0.3867
      4 O           6.0010    1.4400    0.0000 O.3     1  UNL1       -0.3669
      5 C           4.2690   -0.5600    0.0000 C.3     1  UNL1        0.0911
      6 C           3.4030   -0.0600    0.0000 C.3     1  UNL1        0.1073
      7 C           3.4030    0.9400    0.0000 C.3     1  UNL1        0.0871
      8 C           5.1350   -0.0600    0.0000 C.3     1  UNL1        0.0270
      9 C           5.1350    0.9400    0.0000 C.3     1  UNL1        0.1590
     10 C           2.5369    1.4400    0.0000 C.3     1  UNL1       -0.0361
     11 C           5.1350   -2.0600    0.0000 C.3     1  UNL1        0.0369
     12 H           4.8059   -0.8700    0.0000 H       1  UNL1        0.0624
     13 H           3.4030   -0.6800    0.0000 H       1  UNL1        0.0645
     14 H           3.4030    1.5600    0.0000 H       1  UNL1        0.0621
     15 H           5.3471   -0.6426    0.0000 H       1  UNL1        0.0340
     16 H           5.7456    0.0477    0.0000 H       1  UNL1        0.0340
     17 H           5.1350    1.5600    0.0000 H       1  UNL1        0.0908
     18 H           2.8469    1.9769    0.0000 H       1  UNL1        0.0255
     19 H           2.0000    1.7500    0.0000 H       1  UNL1        0.0255
     20 H           2.2269    0.9031    0.0000 H       1  UNL1        0.0255
     21 H           2.0000   -0.2500    0.0000 H       1  UNL1        0.2100
     22 H           6.0010    2.0600    0.0000 H       1  UNL1        0.2125
     23 H           4.8250   -2.5969    0.0000 H       1  UNL1        0.0524
     24 H           5.6720   -2.3700    0.0000 H       1  UNL1        0.0524
     25 H           5.4450   -1.5231    0.0000 H       1  UNL1        0.0524
@<TRIPOS>BOND
     1     1     7    1
     2     1     9    1
     3     5     2    1
     4     2    11    1
     5     6     3    1
     6     3    21    1
     7     9     4    1
     8     4    22    1
     9     5     6    1
    10     5     8    1
    11     5    12    1
    12     6     7    1
    13     6    13    1
    14     7    10    1
    15     7    14    1
    16     8     9    1
    17     8    15    1
    18     8    16    1
    19     9    17    1
    20    10    18    1
    21    10    19    1
    22    10    20    1
    23    11    23    1
    24    11    24    1
    25    11    25    1
