@<TRIPOS>MOLECULE
IMPHY006488
 33 36 0 0 0
SMALL
GASTEIGER

@<TRIPOS>ATOM
      1 O           4.4638   -2.6960    0.0000 O.3     1  UNL1       -0.4893
      2 O           2.8068   -1.4920    0.0000 O.3     1  UNL1       -0.4873
      3 O           3.0366    0.5433    0.0000 O.2     1  UNL1       -0.2632
      4 N           4.7967    0.3552    0.0000 N.ar    1  UNL1       -0.2710
      5 N           6.4165   -1.7158    0.0000 N.ar    1  UNL1       -0.2496
      6 C           5.6057   -0.2326    0.0000 C.ar    1  UNL1        0.0869
      7 C           6.4147    0.3552    0.0000 C.ar    1  UNL1        0.0117
      8 C           5.1057    1.3062    0.0000 C.ar    1  UNL1        0.0580
      9 C           6.1057    1.3062    0.0000 C.ar    1  UNL1        0.0082
     10 C           5.5128   -1.2701    0.0000 C.ar    1  UNL1        0.1336
     11 C           3.8387   -0.0538    0.0000 C.ar    1  UNL1        0.3019
     12 C           4.5646   -1.7011    0.0000 C.ar    1  UNL1        0.1945
     13 C           3.7218   -1.0888    0.0000 C.ar    1  UNL1        0.2294
     14 C           7.2710   -0.1758    0.0000 C.ar    1  UNL1       -0.0338
     15 C           4.5711    2.2002    0.0000 C.ar    1  UNL1       -0.0371
     16 C           6.6404    2.2002    0.0000 C.ar    1  UNL1       -0.0520
     17 C           7.2719   -1.1833    0.0000 C.ar    1  UNL1        0.0291
     18 C           5.0849    3.1062    0.0000 C.ar    1  UNL1       -0.0598
     19 C           6.1265    3.1062    0.0000 C.ar    1  UNL1       -0.0611
     20 C           3.5519   -3.1062    0.0000 C.3     1  UNL1        0.0791
     21 C           2.0000   -0.9011    0.0000 C.3     1  UNL1        0.0792
     22 H           7.8127    0.1259    0.0000 H       1  UNL1        0.0639
     23 H           3.9511    2.1930    0.0000 H       1  UNL1        0.0638
     24 H           7.2604    2.1930    0.0000 H       1  UNL1        0.0624
     25 H           7.8140   -1.4842    0.0000 H       1  UNL1        0.0830
     26 H           4.7728    3.6420    0.0000 H       1  UNL1        0.0618
     27 H           6.4386    3.6420    0.0000 H       1  UNL1        0.0618
     28 H           3.2975   -2.5408    0.0000 H       1  UNL1        0.0660
     29 H           2.9865   -3.3606    0.0000 H       1  UNL1        0.0660
     30 H           3.8062   -3.6717    0.0000 H       1  UNL1        0.0660
     31 H           2.3664   -0.4010    0.0000 H       1  UNL1        0.0660
     32 H           1.4998   -0.5348    0.0000 H       1  UNL1        0.0660
     33 H           1.6336   -1.4013    0.0000 H       1  UNL1        0.0660
@<TRIPOS>BOND
     1     1    12    1
     2     1    20    1
     3     2    13    1
     4     2    21    1
     5     3    11    2
     6     4     6   ar
     7     4     8   ar
     8     4    11   ar
     9     5    10   ar
    10     5    17   ar
    11     6     7   ar
    12     6    10   ar
    13     7     9   ar
    14     7    14   ar
    15     8     9   ar
    16     8    15   ar
    17     9    16   ar
    18    10    12   ar
    19    11    13   ar
    20    12    13   ar
    21    14    17   ar
    22    14    22    1
    23    15    18   ar
    24    15    23    1
    25    16    19   ar
    26    16    24    1
    27    17    25    1
    28    18    19   ar
    29    18    26    1
    30    19    27    1
    31    20    28    1
    32    20    29    1
    33    20    30    1
    34    21    31    1
    35    21    32    1
    36    21    33    1
