@<TRIPOS>MOLECULE
IMPHY005454
 84 88 0 0 0
SMALL
GASTEIGER

@<TRIPOS>ATOM
      1 O           6.4144   -3.2420    0.0000 O.3     1  UNL1       -0.3906
      2 O          11.1246    2.7352    0.0000 O.3     1  UNL1       -0.3886
      3 O           9.3052    3.7671    0.0000 O.3     1  UNL1       -0.3892
      4 O          11.7572    0.2751    0.0000 O.3     1  UNL1       -0.3944
      5 O           3.9891   -3.4509    0.0000 O.3     1  UNL1       -0.4802
      6 O           5.1937   -3.8999    0.0000 O.2     1  UNL1       -0.2503
      7 C           7.5167   -0.4091    0.0000 C.3     1  UNL1       -0.0193
      8 C           7.5167    0.5909    0.0000 C.3     1  UNL1       -0.0257
      9 C           8.4106    1.1255    0.0000 C.3     1  UNL1       -0.0225
     10 C           6.6507   -0.9091    0.0000 C.3     1  UNL1       -0.0028
     11 C           9.3167    0.6117    0.0000 C.3     1  UNL1       -0.0253
     12 C           8.4106   -0.9438    0.0000 C.3     1  UNL1       -0.0463
     13 C           9.3167   -0.4300    0.0000 C.3     1  UNL1       -0.0485
     14 C           5.7847   -0.4091    0.0000 C.2     1  UNL1       -0.0627
     15 C          10.2605    1.1469    0.0000 C.3     1  UNL1        0.0227
     16 C           4.8746   -0.9160    0.0000 C.3     1  UNL1       -0.0007
     17 C           6.6507    1.0909    0.0000 C.3     1  UNL1       -0.0306
     18 C           8.3856    2.2102    0.0000 C.3     1  UNL1       -0.0184
     19 C           6.6667   -1.9506    0.0000 C.3     1  UNL1       -0.0162
     20 C           4.8666   -1.9576    0.0000 C.3     1  UNL1        0.0998
     21 C           5.7687   -2.4784    0.0000 C.3     1  UNL1        0.0723
     22 C           7.8588   -1.3488    0.0000 C.3     1  UNL1       -0.0585
     23 C          10.2605    2.2319    0.0000 C.3     1  UNL1        0.0888
     24 C           5.7847    0.5909    0.0000 C.2     1  UNL1       -0.0836
     25 C           9.3167    2.7671    0.0000 C.3     1  UNL1        0.0822
     26 C           7.5408    1.6188    0.0000 C.3     1  UNL1       -0.0589
     27 C           7.2935   -1.6752    0.0000 C.3     1  UNL1       -0.0552
     28 C           3.9478   -0.3519    0.0000 C.3     1  UNL1       -0.0402
     29 C           3.9312   -2.5073    0.0000 C.3     1  UNL1       -0.0338
     30 C           2.9999   -0.8799    0.0000 C.3     1  UNL1       -0.0343
     31 C          11.2605    1.1431    0.0000 C.3     1  UNL1        0.0523
     32 C          10.7572    0.2790    0.0000 C.3     1  UNL1       -0.0547
     33 C           2.9916   -1.9648    0.0000 C.3     1  UNL1       -0.0467
     34 C           4.8589   -2.9576    0.0000 C.2     1  UNL1        0.3140
     35 C           2.0000   -0.8683    0.0000 C.3     1  UNL1       -0.0598
     36 C           2.5100   -0.0081    0.0000 C.3     1  UNL1       -0.0598
     37 H           8.2561    0.1715    0.0000 H       1  UNL1        0.0315
     38 H           9.8524    0.2996    0.0000 H       1  UNL1        0.0313
     39 H           8.0060   -1.4136    0.0000 H       1  UNL1        0.0271
     40 H           8.8043   -1.4228    0.0000 H       1  UNL1        0.0271
     41 H           9.5258   -1.0136    0.0000 H       1  UNL1        0.0268
     42 H           9.9276   -0.3239    0.0000 H       1  UNL1        0.0268
     43 H           4.8910   -0.0661    0.0000 H       1  UNL1        0.0357
     44 H           7.0492    1.5658    0.0000 H       1  UNL1        0.0310
     45 H           6.2522    1.5658    0.0000 H       1  UNL1        0.0310
     46 H           8.1631    2.7889    0.0000 H       1  UNL1        0.0296
     47 H           7.7773    2.0900    0.0000 H       1  UNL1        0.0296
     48 H           6.8848   -2.5310    0.0000 H       1  UNL1        0.0299
     49 H           7.2759   -1.8352    0.0000 H       1  UNL1        0.0299
     50 H           5.3711   -2.9541    0.0000 H       1  UNL1        0.0605
     51 H           7.2762   -1.5609    0.0000 H       1  UNL1        0.0235
     52 H           8.0709   -1.9314    0.0000 H       1  UNL1        0.0235
     53 H           8.4414   -1.1367    0.0000 H       1  UNL1        0.0235
     54 H          10.7980    1.9229    0.0000 H       1  UNL1        0.0625
     55 H           5.2477    0.9009    0.0000 H       1  UNL1        0.0572
     56 H           9.8506    3.0823    0.0000 H       1  UNL1        0.0619
     57 H           7.8466    2.1581    0.0000 H       1  UNL1        0.0235
     58 H           7.0015    1.9247    0.0000 H       1  UNL1        0.0235
     59 H           7.2349    1.0795    0.0000 H       1  UNL1        0.0235
     60 H           6.8185   -2.0737    0.0000 H       1  UNL1        0.0238
     61 H           7.6920   -2.1501    0.0000 H       1  UNL1        0.0238
     62 H           7.7684   -1.2767    0.0000 H       1  UNL1        0.0238
     63 H           4.3560    0.1147    0.0000 H       1  UNL1        0.0276
     64 H           3.5579    0.1301    0.0000 H       1  UNL1        0.0276
     65 H           3.5339   -2.9833    0.0000 H       1  UNL1        0.0277
     66 H           4.3322   -2.9802    0.0000 H       1  UNL1        0.0277
     67 H          11.8439    1.3529    0.0000 H       1  UNL1        0.0563
     68 H          11.1552    1.7540    0.0000 H       1  UNL1        0.0563
     69 H          10.2190   -0.0290    0.0000 H       1  UNL1        0.0237
     70 H          11.0651   -0.2592    0.0000 H       1  UNL1        0.0237
     71 H          11.2953    0.5869    0.0000 H       1  UNL1        0.0237
     72 H           2.3816   -1.8540    0.0000 H       1  UNL1        0.0271
     73 H           2.7780   -2.5469    0.0000 H       1  UNL1        0.0271
     74 H           7.0246   -3.1319    0.0000 H       1  UNL1        0.2098
     75 H          11.1222    3.3552    0.0000 H       1  UNL1        0.2099
     76 H           2.0072   -0.2483    0.0000 H       1  UNL1        0.0235
     77 H           3.0505    0.2957    0.0000 H       1  UNL1        0.0235
     78 H           2.2062    0.5324    0.0000 H       1  UNL1        0.0235
     79 H           1.9695   -0.3119    0.0000 H       1  UNL1        0.0235
     80 H           1.3800   -0.8611    0.0000 H       1  UNL1        0.0235
     81 H           1.9928   -1.4882    0.0000 H       1  UNL1        0.0235
     82 H           8.7647    4.0708    0.0000 H       1  UNL1        0.2099
     83 H          12.3771    0.2727    0.0000 H       1  UNL1        0.2094
     84 H           3.9843   -4.0708    0.0000 H       1  UNL1        0.2951
@<TRIPOS>BOND
     1    21     1    1
     2     1    74    1
     3    23     2    1
     4     2    75    1
     5    25     3    1
     6     3    82    1
     7     4    31    1
     8     4    83    1
     9     5    34    1
    10     5    84    1
    11     6    34    2
    12     7     8    1
    13     7    10    1
    14     7    12    1
    15     7    22    1
    16     8     9    1
    17     8    17    1
    18     8    37    1
    19     9    11    1
    20     9    18    1
    21     9    26    1
    22    10    14    1
    23    10    19    1
    24    10    27    1
    25    11    13    1
    26    11    15    1
    27    11    38    1
    28    12    13    1
    29    12    39    1
    30    12    40    1
    31    13    41    1
    32    13    42    1
    33    14    16    1
    34    14    24    2
    35    15    23    1
    36    15    31    1
    37    15    32    1
    38    16    20    1
    39    16    28    1
    40    16    43    1
    41    17    24    1
    42    17    44    1
    43    17    45    1
    44    18    25    1
    45    18    46    1
    46    18    47    1
    47    19    21    1
    48    19    48    1
    49    19    49    1
    50    20    21    1
    51    20    29    1
    52    20    34    1
    53    21    50    1
    54    22    51    1
    55    22    52    1
    56    22    53    1
    57    23    25    1
    58    23    54    1
    59    24    55    1
    60    25    56    1
    61    26    57    1
    62    26    58    1
    63    26    59    1
    64    27    60    1
    65    27    61    1
    66    27    62    1
    67    28    30    1
    68    28    63    1
    69    28    64    1
    70    29    33    1
    71    29    65    1
    72    29    66    1
    73    30    33    1
    74    30    35    1
    75    30    36    1
    76    31    67    1
    77    31    68    1
    78    32    69    1
    79    32    70    1
    80    32    71    1
    81    33    72    1
    82    33    73    1
    83    35    76    1
    84    35    80    1
    85    35    81    1
    86    36    77    1
    87    36    78    1
    88    36    79    1
