@<TRIPOS>MOLECULE
IMPHY014579
 46 47 0 0 0
SMALL
GASTEIGER

@<TRIPOS>ATOM
      1 O           6.6160    2.1250    0.0000 O.3     1  UNL1       -0.3886
      2 O           3.0000    1.5846    0.0000 O.3     1  UNL1       -0.3883
      3 O           6.1144   -1.8160    0.0000 O.3     1  UNL1       -0.3912
      4 C           5.2320   -0.2814    0.0000 C.3     1  UNL1       -0.0005
      5 C           5.2320    0.7186    0.0000 C.3     1  UNL1       -0.0021
      6 C           6.1260    1.2533    0.0000 C.3     1  UNL1        0.0669
      7 C           4.3660    1.2186    0.0000 C.3     1  UNL1       -0.0177
      8 C           3.5000    0.7186    0.0000 C.3     1  UNL1        0.0688
      9 C           4.3660   -0.7814    0.0000 C.3     1  UNL1       -0.0423
     10 C           6.1260   -0.8161    0.0000 C.3     1  UNL1        0.0610
     11 C           3.5000   -0.2814    0.0000 C.3     1  UNL1       -0.0232
     12 C           7.0321    0.7394    0.0000 C.3     1  UNL1       -0.0216
     13 C           7.0321   -0.3022    0.0000 C.3     1  UNL1       -0.0237
     14 C           5.2320   -1.2814    0.0000 C.3     1  UNL1       -0.0569
     15 C           2.5000    0.7186    0.0000 C.3     1  UNL1       -0.0178
     16 C           5.6160    2.1134    0.0000 C.3     1  UNL1       -0.0358
     17 C           2.0000   -0.1474    0.0000 C.3     1  UNL1       -0.0601
     18 C           2.0000    1.5846    0.0000 C.3     1  UNL1       -0.0601
     19 H           5.2255    1.5686    0.0000 H       1  UNL1        0.0335
     20 H           4.7646    1.6936    0.0000 H       1  UNL1        0.0297
     21 H           3.9675    1.6936    0.0000 H       1  UNL1        0.0297
     22 H           3.9675   -1.2564    0.0000 H       1  UNL1        0.0272
     23 H           4.7646   -1.2564    0.0000 H       1  UNL1        0.0272
     24 H           6.6599   -1.1312    0.0000 H       1  UNL1        0.0599
     25 H           2.8894   -0.1737    0.0000 H       1  UNL1        0.0293
     26 H           3.2880   -0.8640    0.0000 H       1  UNL1        0.0293
     27 H           7.6429    0.6333    0.0000 H       1  UNL1        0.0294
     28 H           7.2411    1.3231    0.0000 H       1  UNL1        0.0294
     29 H           7.2411   -0.8859    0.0000 H       1  UNL1        0.0291
     30 H           7.6429   -0.1961    0.0000 H       1  UNL1        0.0291
     31 H           4.6120   -1.2814    0.0000 H       1  UNL1        0.0236
     32 H           5.2320   -1.9014    0.0000 H       1  UNL1        0.0236
     33 H           5.8520   -1.2814    0.0000 H       1  UNL1        0.0236
     34 H           1.8800    0.7186    0.0000 H       1  UNL1        0.0323
     35 H           6.1493    2.4296    0.0000 H       1  UNL1        0.0257
     36 H           5.2998    2.6468    0.0000 H       1  UNL1        0.0257
     37 H           5.0827    1.7973    0.0000 H       1  UNL1        0.0257
     38 H           7.2359    2.1322    0.0000 H       1  UNL1        0.2102
     39 H           3.3100    2.1216    0.0000 H       1  UNL1        0.2102
     40 H           6.6477   -2.1322    0.0000 H       1  UNL1        0.2098
     41 H           1.4631    0.1626    0.0000 H       1  UNL1        0.0233
     42 H           1.6900   -0.6844    0.0000 H       1  UNL1        0.0233
     43 H           2.5369   -0.4574    0.0000 H       1  UNL1        0.0233
     44 H           2.5369    1.8946    0.0000 H       1  UNL1        0.0233
     45 H           1.6900    2.1216    0.0000 H       1  UNL1        0.0233
     46 H           1.4631    1.2746    0.0000 H       1  UNL1        0.0233
@<TRIPOS>BOND
     1     6     1    1
     2     1    38    1
     3     8     2    1
     4     2    39    1
     5    10     3    1
     6     3    40    1
     7     4     5    1
     8     4     9    1
     9     4    10    1
    10     4    14    1
    11     5     6    1
    12     5     7    1
    13     5    19    1
    14     6    12    1
    15     6    16    1
    16     7     8    1
    17     7    20    1
    18     7    21    1
    19     8    11    1
    20     8    15    1
    21     9    11    1
    22     9    22    1
    23     9    23    1
    24    10    13    1
    25    10    24    1
    26    11    25    1
    27    11    26    1
    28    12    13    1
    29    12    27    1
    30    12    28    1
    31    13    29    1
    32    13    30    1
    33    14    31    1
    34    14    32    1
    35    14    33    1
    36    15    17    1
    37    15    18    1
    38    15    34    1
    39    16    35    1
    40    16    36    1
    41    16    37    1
    42    17    41    1
    43    17    42    1
    44    17    43    1
    45    18    44    1
    46    18    45    1
    47    18    46    1
