@<TRIPOS>MOLECULE
IMPHY014909
 42 43 0 0 0
SMALL
GASTEIGER

@<TRIPOS>ATOM
      1 O           2.5369   -1.0000    0.0000 O.3     1  UNL1       -0.3888
      2 C           6.0010   -0.0000    0.0000 C.3     1  UNL1       -0.0082
      3 C           5.1350   -0.5000    0.0000 C.3     1  UNL1       -0.0382
      4 C           4.2690   -0.0000    0.0000 C.3     1  UNL1       -0.0116
      5 C           6.8950   -0.5347    0.0000 C.3     1  UNL1       -0.0345
      6 C           6.0010    1.0000    0.0000 C.2     1  UNL1       -0.0673
      7 C           4.2690    1.0000    0.0000 C.3     1  UNL1       -0.0439
      8 C           5.1350    1.5000    0.0000 C.3     1  UNL1       -0.0309
      9 C           3.4030   -0.5000    0.0000 C.3     1  UNL1        0.0634
     10 C           7.8010   -0.0208    0.0000 C.3     1  UNL1       -0.0462
     11 C           6.0010   -1.0000    0.0000 C.3     1  UNL1       -0.0556
     12 C           7.8010    1.0208    0.0000 C.3     1  UNL1       -0.0342
     13 C           6.8950    1.5346    0.0000 C.2     1  UNL1       -0.0842
     14 C           6.8834   -1.5346    0.0000 C.3     1  UNL1       -0.0616
     15 C           2.9030    0.3660    0.0000 C.3     1  UNL1       -0.0361
     16 C           3.9030   -1.3661    0.0000 C.3     1  UNL1       -0.0361
     17 H           4.7365   -0.9750    0.0000 H       1  UNL1        0.0277
     18 H           5.5335   -0.9750    0.0000 H       1  UNL1        0.0277
     19 H           3.5329    0.4250    0.0000 H       1  UNL1        0.0329
     20 H           7.4289   -0.8499    0.0000 H       1  UNL1        0.0307
     21 H           4.0569    1.5826    0.0000 H       1  UNL1        0.0272
     22 H           3.6584    0.8923    0.0000 H       1  UNL1        0.0272
     23 H           5.5335    1.9749    0.0000 H       1  UNL1        0.0310
     24 H           4.7365    1.9749    0.0000 H       1  UNL1        0.0310
     25 H           8.0101   -0.6045    0.0000 H       1  UNL1        0.0271
     26 H           8.4119    0.0852    0.0000 H       1  UNL1        0.0271
     27 H           5.3810   -1.0000    0.0000 H       1  UNL1        0.0238
     28 H           6.0010   -1.6200    0.0000 H       1  UNL1        0.0238
     29 H           6.6210   -1.0000    0.0000 H       1  UNL1        0.0238
     30 H           8.4119    0.9147    0.0000 H       1  UNL1        0.0307
     31 H           8.0101    1.6045    0.0000 H       1  UNL1        0.0307
     32 H           6.8878    2.1546    0.0000 H       1  UNL1        0.0572
     33 H           6.2635   -1.5275    0.0000 H       1  UNL1        0.0233
     34 H           6.8762   -2.1546    0.0000 H       1  UNL1        0.0233
     35 H           7.5034   -1.5418    0.0000 H       1  UNL1        0.0233
     36 H           3.4399    0.6760    0.0000 H       1  UNL1        0.0257
     37 H           2.5930    0.9029    0.0000 H       1  UNL1        0.0257
     38 H           2.3660    0.0560    0.0000 H       1  UNL1        0.0257
     39 H           3.3660   -1.6761    0.0000 H       1  UNL1        0.0257
     40 H           4.2130   -1.9030    0.0000 H       1  UNL1        0.0257
     41 H           4.4399   -1.0561    0.0000 H       1  UNL1        0.0257
     42 H           2.0000   -0.6900    0.0000 H       1  UNL1        0.2101
@<TRIPOS>BOND
     1     1     9    1
     2     1    42    1
     3     2     3    1
     4     2     5    1
     5     2     6    1
     6     2    11    1
     7     3     4    1
     8     3    17    1
     9     3    18    1
    10     4     7    1
    11     4     9    1
    12     4    19    1
    13     5    10    1
    14     5    14    1
    15     5    20    1
    16     6     8    1
    17     6    13    2
    18     7     8    1
    19     7    21    1
    20     7    22    1
    21     8    23    1
    22     8    24    1
    23     9    15    1
    24     9    16    1
    25    10    12    1
    26    10    25    1
    27    10    26    1
    28    11    27    1
    29    11    28    1
    30    11    29    1
    31    12    13    1
    32    12    30    1
    33    12    31    1
    34    13    32    1
    35    14    33    1
    36    14    34    1
    37    14    35    1
    38    15    36    1
    39    15    37    1
    40    15    38    1
    41    16    39    1
    42    16    40    1
    43    16    41    1
