@<TRIPOS>MOLECULE
IMPHY012081
 23 23 0 0 0
SMALL
GASTEIGER

@<TRIPOS>ATOM
      1 N           3.7320    1.2500    0.0000 N.3     1  UNL1       -0.3042
      2 C           2.8660    0.7500    0.0000 C.3     1  UNL1        0.0235
      3 C           2.8660   -0.2500    0.0000 C.ar    1  UNL1       -0.0334
      4 C           3.7320    2.2500    0.0000 C.3     1  UNL1       -0.0127
      5 C           4.5981    0.7500    0.0000 C.3     1  UNL1       -0.0127
      6 C           2.0000   -0.7500    0.0000 C.ar    1  UNL1       -0.0573
      7 C           3.7320   -0.7500    0.0000 C.ar    1  UNL1       -0.0573
      8 C           2.0000   -1.7500    0.0000 C.ar    1  UNL1       -0.0615
      9 C           3.7320   -1.7500    0.0000 C.ar    1  UNL1       -0.0615
     10 C           2.8660   -2.2500    0.0000 C.ar    1  UNL1       -0.0617
     11 H           2.6540    1.3326    0.0000 H       1  UNL1        0.0475
     12 H           2.2554    0.6423    0.0000 H       1  UNL1        0.0475
     13 H           4.3520    2.2500    0.0000 H       1  UNL1        0.0391
     14 H           3.7320    2.8700    0.0000 H       1  UNL1        0.0391
     15 H           3.1120    2.2500    0.0000 H       1  UNL1        0.0391
     16 H           4.2881    0.2131    0.0000 H       1  UNL1        0.0391
     17 H           5.1350    0.4400    0.0000 H       1  UNL1        0.0391
     18 H           4.9081    1.2869    0.0000 H       1  UNL1        0.0391
     19 H           1.4631   -0.4400    0.0000 H       1  UNL1        0.0621
     20 H           4.2690   -0.4400    0.0000 H       1  UNL1        0.0621
     21 H           1.4631   -2.0600    0.0000 H       1  UNL1        0.0618
     22 H           4.2690   -2.0600    0.0000 H       1  UNL1        0.0618
     23 H           2.8660   -2.8700    0.0000 H       1  UNL1        0.0618
@<TRIPOS>BOND
     1     1     2    1
     2     1     4    1
     3     1     5    1
     4     2     3    1
     5     2    11    1
     6     2    12    1
     7     3     6   ar
     8     3     7   ar
     9     4    13    1
    10     4    14    1
    11     4    15    1
    12     5    16    1
    13     5    17    1
    14     5    18    1
    15     6     8   ar
    16     6    19    1
    17     7     9   ar
    18     7    20    1
    19     8    10   ar
    20     8    21    1
    21     9    10   ar
    22     9    22    1
    23    10    23    1
