@<TRIPOS>MOLECULE
IMPHY008995
 33 35 0 0 0
SMALL
GASTEIGER

@<TRIPOS>ATOM
      1 O           7.3424   -1.5372    0.0000 O.2     1  UNL1       -0.4555
      2 O           7.6530    1.0228    0.0000 O.3     1  UNL1       -0.4910
      3 O           3.7702   -1.7671    0.0000 O.2     1  UNL1       -0.4220
      4 O           2.0000   -1.7566    0.0000 O.2     1  UNL1       -0.2452
      5 C           8.9260   -0.7324    0.0000 C.3     1  UNL1        0.0152
      6 C           7.9260   -0.7324    0.0000 C.ar    1  UNL1        0.1502
      7 C           6.3961   -0.2324    0.0000 C.ar    1  UNL1        0.0630
      8 C           7.3424    0.0723    0.0000 C.ar    1  UNL1        0.1688
      9 C           6.3961   -1.2324    0.0000 C.ar    1  UNL1        0.1424
     10 C           5.5301    0.2676    0.0000 C.ar    1  UNL1       -0.0368
     11 C           9.4260   -1.5985    0.0000 C.3     1  UNL1       -0.0557
     12 C           9.4260    0.1336    0.0000 C.3     1  UNL1       -0.0557
     13 C           4.6641   -0.2324    0.0000 C.ar    1  UNL1        0.0185
     14 C           5.5301   -1.7324    0.0000 C.ar    1  UNL1        0.0244
     15 C           4.6641   -1.2324    0.0000 C.ar    1  UNL1        0.1426
     16 C           3.7702    0.3022    0.0000 C.ar    1  UNL1       -0.0443
     17 C           2.8641   -0.2116    0.0000 C.ar    1  UNL1        0.0236
     18 C           2.8641   -1.2533    0.0000 C.ar    1  UNL1        0.3372
     19 C           6.9852    1.7671    0.0000 C.3     1  UNL1        0.0790
     20 H           8.6160   -1.2694    0.0000 H       1  UNL1        0.0375
     21 H           5.5301    0.8876    0.0000 H       1  UNL1        0.0633
     22 H           9.9629   -0.1764    0.0000 H       1  UNL1        0.0236
     23 H           9.7360    0.6705    0.0000 H       1  UNL1        0.0236
     24 H           8.8890   -1.9085    0.0000 H       1  UNL1        0.0236
     25 H           9.7360   -2.1354    0.0000 H       1  UNL1        0.0236
     26 H           9.9629   -1.2885    0.0000 H       1  UNL1        0.0236
     27 H           8.8890    0.4436    0.0000 H       1  UNL1        0.0236
     28 H           5.5301   -2.3524    0.0000 H       1  UNL1        0.0692
     29 H           3.7773    0.9222    0.0000 H       1  UNL1        0.0627
     30 H           2.3284    0.1004    0.0000 H       1  UNL1        0.0689
     31 H           7.4467    2.1812    0.0000 H       1  UNL1        0.0660
     32 H           6.5711    2.2286    0.0000 H       1  UNL1        0.0660
     33 H           6.5237    1.3530    0.0000 H       1  UNL1        0.0660
@<TRIPOS>BOND
     1     1     6   ar
     2     1     9   ar
     3     2     8    1
     4     2    19    1
     5     3    15   ar
     6     3    18   ar
     7     4    18    2
     8     5     6    1
     9     5    11    1
    10     5    12    1
    11     5    20    1
    12     6     8   ar
    13     7     8   ar
    14     7     9   ar
    15     7    10   ar
    16     9    14   ar
    17    10    13   ar
    18    10    21    1
    19    11    24    1
    20    11    25    1
    21    11    26    1
    22    12    22    1
    23    12    23    1
    24    12    27    1
    25    13    15   ar
    26    13    16   ar
    27    14    15   ar
    28    14    28    1
    29    16    17   ar
    30    16    29    1
    31    17    18   ar
    32    17    30    1
    33    19    31    1
    34    19    32    1
    35    19    33    1
