@<TRIPOS>MOLECULE
IMPHY007231
 38 39 0 0 0
SMALL
GASTEIGER

@<TRIPOS>ATOM
      1 O           3.7320   -2.6123    0.0000 O.3     1  UNL1       -0.3866
      2 O           2.8660   -0.1123    0.0000 O.3     1  UNL1       -0.3886
      3 O           6.3580    0.8530    0.0000 O.2     1  UNL1       -0.4218
      4 O           2.8660    0.8877    0.0000 O.3     1  UNL1       -0.4947
      5 O           8.1282    0.8635    0.0000 O.2     1  UNL1       -0.2452
      6 C           3.7320   -1.6123    0.0000 C.3     1  UNL1        0.0865
      7 C           3.7320   -0.6123    0.0000 C.3     1  UNL1        0.0875
      8 C           4.5981   -0.1123    0.0000 C.3     1  UNL1        0.0081
      9 C           4.5981    0.8877    0.0000 C.ar    1  UNL1        0.0397
     10 C           2.7320   -1.6123    0.0000 C.3     1  UNL1       -0.0339
     11 C           4.7320   -1.6123    0.0000 C.3     1  UNL1       -0.0339
     12 C           5.4641    1.3877    0.0000 C.ar    1  UNL1        0.1458
     13 C           3.7320    1.3877    0.0000 C.ar    1  UNL1        0.1269
     14 C           5.4641    2.3877    0.0000 C.ar    1  UNL1        0.0181
     15 C           3.7320    2.3877    0.0000 C.ar    1  UNL1       -0.0189
     16 C           4.5981    2.8877    0.0000 C.ar    1  UNL1       -0.0476
     17 C           6.3580    2.9223    0.0000 C.ar    1  UNL1       -0.0443
     18 C           7.2641    2.4085    0.0000 C.ar    1  UNL1        0.0236
     19 C           7.2641    1.3668    0.0000 C.ar    1  UNL1        0.3372
     20 C           2.0000    1.3877    0.0000 C.3     1  UNL1        0.0788
     21 H           3.7320    0.0077    0.0000 H       1  UNL1        0.0625
     22 H           4.8101   -0.6949    0.0000 H       1  UNL1        0.0341
     23 H           5.2087   -0.0047    0.0000 H       1  UNL1        0.0341
     24 H           4.7320   -2.2323    0.0000 H       1  UNL1        0.0258
     25 H           2.7320   -0.9923    0.0000 H       1  UNL1        0.0258
     26 H           2.1120   -1.6123    0.0000 H       1  UNL1        0.0258
     27 H           2.7320   -2.2323    0.0000 H       1  UNL1        0.0258
     28 H           5.3520   -1.6123    0.0000 H       1  UNL1        0.0258
     29 H           4.7320   -0.9923    0.0000 H       1  UNL1        0.0258
     30 H           3.1951   -2.9223    0.0000 H       1  UNL1        0.2102
     31 H           2.3291   -0.4223    0.0000 H       1  UNL1        0.2099
     32 H           3.1951    2.6977    0.0000 H       1  UNL1        0.0654
     33 H           4.5981    3.5077    0.0000 H       1  UNL1        0.0626
     34 H           6.3509    3.5423    0.0000 H       1  UNL1        0.0627
     35 H           7.7998    2.7205    0.0000 H       1  UNL1        0.0689
     36 H           2.3100    1.9246    0.0000 H       1  UNL1        0.0660
     37 H           1.4631    1.6977    0.0000 H       1  UNL1        0.0660
     38 H           1.6900    0.8507    0.0000 H       1  UNL1        0.0660
@<TRIPOS>BOND
     1     1     6    1
     2     1    30    1
     3     7     2    1
     4     2    31    1
     5     3    12   ar
     6     3    19   ar
     7     4    13    1
     8     4    20    1
     9     5    19    2
    10     6     7    1
    11     6    10    1
    12     6    11    1
    13     7     8    1
    14     7    21    1
    15     8     9    1
    16     8    22    1
    17     8    23    1
    18     9    12   ar
    19     9    13   ar
    20    10    25    1
    21    10    26    1
    22    10    27    1
    23    11    24    1
    24    11    28    1
    25    11    29    1
    26    12    14   ar
    27    13    15   ar
    28    14    16   ar
    29    14    17   ar
    30    15    16   ar
    31    15    32    1
    32    16    33    1
    33    17    18   ar
    34    17    34    1
    35    18    19   ar
    36    18    35    1
    37    20    36    1
    38    20    37    1
    39    20    38    1
