@<TRIPOS>MOLECULE
IMPHY007537
 51 53 0 0 0
SMALL
GASTEIGER

@<TRIPOS>ATOM
      1 O           4.6587   -0.1537    0.0000 O.3     1  UNL1       -0.3634
      2 O           7.5500    1.5018    0.0000 O.3     1  UNL1       -0.3946
      3 O           7.9710    0.2064    0.0000 O.3     1  UNL1       -0.3946
      4 O           4.6056    4.2425    0.0000 O.3     1  UNL1       -0.4914
      5 O           3.7357   -3.7415    0.0000 O.3     1  UNL1       -0.4914
      6 O           2.6166    4.0334    0.0000 O.3     1  UNL1       -0.5033
      7 O           5.4677   -4.7415    0.0000 O.3     1  UNL1       -0.5033
      8 C           5.9677    0.7974    0.0000 C.3     1  UNL1        0.0202
      9 C           6.2768   -0.1537    0.0000 C.3     1  UNL1        0.0202
     10 C           4.9677    0.7974    0.0000 C.3     1  UNL1        0.0898
     11 C           5.4677   -0.7415    0.0000 C.3     1  UNL1        0.0898
     12 C           6.5555    1.6064    0.0000 C.3     1  UNL1        0.0501
     13 C           7.2278   -0.4627    0.0000 C.3     1  UNL1        0.0501
     14 C           4.3800    1.6064    0.0000 C.ar    1  UNL1       -0.0148
     15 C           5.4677   -1.7415    0.0000 C.ar    1  UNL1       -0.0148
     16 C           4.7867    2.5199    0.0000 C.ar    1  UNL1       -0.0107
     17 C           4.6017   -2.2415    0.0000 C.ar    1  UNL1       -0.0107
     18 C           3.3854    1.5018    0.0000 C.ar    1  UNL1       -0.0524
     19 C           6.3338   -2.2415    0.0000 C.ar    1  UNL1       -0.0524
     20 C           4.1989    3.3289    0.0000 C.ar    1  UNL1        0.1616
     21 C           4.6017   -3.2415    0.0000 C.ar    1  UNL1        0.1616
     22 C           2.7976    2.3109    0.0000 C.ar    1  UNL1       -0.0162
     23 C           6.3338   -3.2415    0.0000 C.ar    1  UNL1       -0.0162
     24 C           3.2044    3.2244    0.0000 C.ar    1  UNL1        0.1585
     25 C           5.4677   -3.7415    0.0000 C.ar    1  UNL1        0.1585
     26 C           4.0179    5.0515    0.0000 C.3     1  UNL1        0.0790
     27 C           3.7357   -4.7415    0.0000 C.3     1  UNL1        0.0790
     28 H           5.6863    1.3498    0.0000 H       1  UNL1        0.0356
     29 H           6.7152    0.2847    0.0000 H       1  UNL1        0.0356
     30 H           4.3554    0.7004    0.0000 H       1  UNL1        0.0650
     31 H           4.9153   -1.0230    0.0000 H       1  UNL1        0.0650
     32 H           6.7264    2.2024    0.0000 H       1  UNL1        0.0561
     33 H           5.9983    1.8782    0.0000 H       1  UNL1        0.0561
     34 H           6.9368   -1.0102    0.0000 H       1  UNL1        0.0561
     35 H           7.7164   -0.8444    0.0000 H       1  UNL1        0.0561
     36 H           5.4033    2.5847    0.0000 H       1  UNL1        0.0659
     37 H           4.0648   -1.9315    0.0000 H       1  UNL1        0.0659
     38 H           3.1333    0.9354    0.0000 H       1  UNL1        0.0622
     39 H           6.8707   -1.9315    0.0000 H       1  UNL1        0.0622
     40 H           7.9145    2.0034    0.0000 H       1  UNL1        0.2094
     41 H           8.5606    0.0148    0.0000 H       1  UNL1        0.2094
     42 H           2.1810    2.2460    0.0000 H       1  UNL1        0.0655
     43 H           6.8707   -3.5515    0.0000 H       1  UNL1        0.0655
     44 H           2.0000    3.9686    0.0000 H       1  UNL1        0.2923
     45 H           6.0047   -5.0515    0.0000 H       1  UNL1        0.2923
     46 H           4.5194    5.4159    0.0000 H       1  UNL1        0.0660
     47 H           3.6534    5.5531    0.0000 H       1  UNL1        0.0660
     48 H           3.5163    4.6871    0.0000 H       1  UNL1        0.0660
     49 H           3.1157   -4.7415    0.0000 H       1  UNL1        0.0660
     50 H           3.7357   -5.3615    0.0000 H       1  UNL1        0.0660
     51 H           4.3557   -4.7415    0.0000 H       1  UNL1        0.0660
@<TRIPOS>BOND
     1     1    10    1
     2     1    11    1
     3     2    12    1
     4     2    40    1
     5     3    13    1
     6     3    41    1
     7     4    20    1
     8     4    26    1
     9     5    21    1
    10     5    27    1
    11     6    24    1
    12     6    44    1
    13     7    25    1
    14     7    45    1
    15     8     9    1
    16     8    10    1
    17     8    12    1
    18     8    28    1
    19     9    11    1
    20     9    13    1
    21     9    29    1
    22    10    14    1
    23    10    30    1
    24    11    15    1
    25    11    31    1
    26    12    32    1
    27    12    33    1
    28    13    34    1
    29    13    35    1
    30    14    16   ar
    31    14    18   ar
    32    15    17   ar
    33    15    19   ar
    34    16    20   ar
    35    16    36    1
    36    17    21   ar
    37    17    37    1
    38    18    22   ar
    39    18    38    1
    40    19    23   ar
    41    19    39    1
    42    20    24   ar
    43    21    25   ar
    44    22    24   ar
    45    22    42    1
    46    23    25   ar
    47    23    43    1
    48    26    46    1
    49    26    47    1
    50    26    48    1
    51    27    49    1
    52    27    50    1
    53    27    51    1
