@<TRIPOS>MOLECULE
IMPHY010143
 25 26 0 0 0
SMALL
GASTEIGER

@<TRIPOS>ATOM
      1 O           2.1077   -1.4262    0.0000 O.3     1  UNL1       -0.3917
      2 N           4.6196    1.1708    0.0000 N.3     1  UNL1       -0.2993
      3 C           5.0974   -0.7777    0.0000 C.3     1  UNL1        0.0128
      4 C           5.3562    0.1882    0.0000 C.3     1  UNL1        0.0128
      5 C           6.4963   -1.2866    0.0000 C.3     1  UNL1       -0.0358
      6 C           6.7552   -0.3206    0.0000 C.3     1  UNL1       -0.0358
      7 C           3.8764   -1.6434    0.0000 C.3     1  UNL1       -0.0111
      8 C           3.3230   -0.1230    0.0000 C.3     1  UNL1       -0.0111
      9 C           3.0473   -1.0842    0.0000 C.3     1  UNL1        0.0581
     10 C           4.1196    2.0368    0.0000 C.3     1  UNL1       -0.0122
     11 H           4.8774   -1.5988    0.0000 H       1  UNL1        0.0463
     12 H           5.5762    1.0092    0.0000 H       1  UNL1        0.0463
     13 H           6.3014   -1.8751    0.0000 H       1  UNL1        0.0281
     14 H           7.0903   -1.4643    0.0000 H       1  UNL1        0.0281
     15 H           7.3491   -0.4984    0.0000 H       1  UNL1        0.0281
     16 H           6.9501    0.2679    0.0000 H       1  UNL1        0.0281
     17 H           3.4706   -2.1121    0.0000 H       1  UNL1        0.0305
     18 H           4.2930   -2.1025    0.0000 H       1  UNL1        0.0305
     19 H           3.3179    0.4970    0.0000 H       1  UNL1        0.0305
     20 H           2.7087   -0.0392    0.0000 H       1  UNL1        0.0305
     21 H           2.5939   -0.6614    0.0000 H       1  UNL1        0.0594
     22 H           4.6566    2.3468    0.0000 H       1  UNL1        0.0391
     23 H           3.8096    2.5738    0.0000 H       1  UNL1        0.0391
     24 H           3.5827    1.7268    0.0000 H       1  UNL1        0.0391
     25 H           2.0000   -2.0368    0.0000 H       1  UNL1        0.2098
@<TRIPOS>BOND
     1     1     9    1
     2     1    25    1
     3     2     3    1
     4     2     4    1
     5     2    10    1
     6     3     5    1
     7     3     7    1
     8     3    11    1
     9     4     6    1
    10     4     8    1
    11     4    12    1
    12     5     6    1
    13     5    13    1
    14     5    14    1
    15     6    15    1
    16     6    16    1
    17     7     9    1
    18     7    17    1
    19     7    18    1
    20     8     9    1
    21     8    19    1
    22     8    20    1
    23     9    21    1
    24    10    22    1
    25    10    23    1
    26    10    24    1
