@<TRIPOS>MOLECULE
IMPHY016259
 26 25 0 0 0
SMALL
GASTEIGER

@<TRIPOS>ATOM
      1 O           2.0000   -0.0600    0.0000 O.2     1  UNL1       -0.3007
      2 C           3.7320   -0.0600    0.0000 C.3     1  UNL1        0.0151
      3 C           4.5981    0.4400    0.0000 C.3     1  UNL1       -0.0258
      4 C           7.1962   -0.0600    0.0000 C.3     1  UNL1       -0.0350
      5 C           5.4641   -0.0600    0.0000 C.2     1  UNL1       -0.0873
      6 C           8.0622    0.4400    0.0000 C.3     1  UNL1       -0.0525
      7 C           3.7320   -1.0600    0.0000 C.3     1  UNL1       -0.0557
      8 C           6.3301    0.4400    0.0000 C.2     1  UNL1       -0.0879
      9 C           2.8660    0.4400    0.0000 C.2     1  UNL1        0.1234
     10 C           8.9282   -0.0600    0.0000 C.3     1  UNL1       -0.0650
     11 H           3.7320    0.5600    0.0000 H       1  UNL1        0.0375
     12 H           4.9966    0.9149    0.0000 H       1  UNL1        0.0314
     13 H           4.1996    0.9149    0.0000 H       1  UNL1        0.0314
     14 H           6.7976   -0.5349    0.0000 H       1  UNL1        0.0307
     15 H           7.5947   -0.5349    0.0000 H       1  UNL1        0.0307
     16 H           5.4641   -0.6800    0.0000 H       1  UNL1        0.0569
     17 H           8.4607    0.9149    0.0000 H       1  UNL1        0.0266
     18 H           7.6636    0.9149    0.0000 H       1  UNL1        0.0266
     19 H           3.1120   -1.0600    0.0000 H       1  UNL1        0.0236
     20 H           3.7320   -1.6800    0.0000 H       1  UNL1        0.0236
     21 H           4.3520   -1.0600    0.0000 H       1  UNL1        0.0236
     22 H           6.3301    1.0600    0.0000 H       1  UNL1        0.0569
     23 H           2.8660    1.0600    0.0000 H       1  UNL1        0.1029
     24 H           8.6182   -0.5969    0.0000 H       1  UNL1        0.0230
     25 H           9.4651   -0.3700    0.0000 H       1  UNL1        0.0230
     26 H           9.2382    0.4769    0.0000 H       1  UNL1        0.0230
@<TRIPOS>BOND
     1     1     9    2
     2     2     3    1
     3     2     7    1
     4     2     9    1
     5     2    11    1
     6     3     5    1
     7     3    12    1
     8     3    13    1
     9     4     6    1
    10     4     8    1
    11     4    14    1
    12     4    15    1
    13     5     8    2
    14     5    16    1
    15     6    10    1
    16     6    17    1
    17     6    18    1
    18     7    19    1
    19     7    20    1
    20     7    21    1
    21     8    22    1
    22     9    23    1
    23    10    24    1
    24    10    25    1
    25    10    26    1
