@<TRIPOS>MOLECULE
IMPHY008414
 84 87 0 0 0
SMALL
GASTEIGER

@<TRIPOS>ATOM
      1 O           5.2710   -3.6638    0.0000 O.3     1  UNL1       -0.3877
      2 O           2.5357   -3.1677    0.0000 O.3     1  UNL1       -0.3912
      3 C           7.9288   -1.1154    0.0000 C.3     1  UNL1       -0.0231
      4 C           7.0628   -1.6154    0.0000 C.3     1  UNL1       -0.0293
      5 C           6.1968   -1.1154    0.0000 C.3     1  UNL1       -0.0233
      6 C           7.9288   -0.1154    0.0000 C.3     1  UNL1       -0.0233
      7 C           5.2868   -1.6222    0.0000 C.3     1  UNL1       -0.0058
      8 C           8.8750    0.1894    0.0000 C.3     1  UNL1       -0.0325
      9 C           5.2787   -2.6638    0.0000 C.3     1  UNL1        0.0768
     10 C           6.1968   -0.1154    0.0000 C.3     1  UNL1       -0.0465
     11 C           7.0628    0.3846    0.0000 C.3     1  UNL1       -0.0463
     12 C           8.8750   -1.4201    0.0000 C.3     1  UNL1       -0.0466
     13 C           7.0789   -2.6569    0.0000 C.3     1  UNL1       -0.0466
     14 C           9.4586   -0.6154    0.0000 C.3     1  UNL1       -0.0489
     15 C           6.1808   -3.1846    0.0000 C.3     1  UNL1       -0.0228
     16 C           4.3433   -3.2135    0.0000 C.3     1  UNL1        0.0201
     17 C           7.9288   -2.1154    0.0000 C.3     1  UNL1       -0.0588
     18 C           4.3599   -1.0581    0.0000 C.3     1  UNL1       -0.0447
     19 C           5.3307   -0.6154    0.0000 C.3     1  UNL1       -0.0589
     20 C           7.9288    0.8846    0.0000 C.3     1  UNL1       -0.0588
     21 C           9.1857    1.1399    0.0000 C.3     1  UNL1       -0.0403
     22 C           3.4037   -2.6710    0.0000 C.3     1  UNL1        0.0630
     23 C           3.4120   -1.5861    0.0000 C.3     1  UNL1       -0.0259
     24 C           3.8467   -4.0815    0.0000 C.3     1  UNL1       -0.0548
     25 C           4.5208   -4.1977    0.0000 C.3     1  UNL1       -0.0548
     26 C          10.1642    1.3461    0.0000 C.3     1  UNL1       -0.0467
     27 C           8.5179    1.8842    0.0000 C.3     1  UNL1       -0.0621
     28 C          10.4749    2.2966    0.0000 C.3     1  UNL1       -0.0343
     29 C          11.4534    2.5028    0.0000 C.2     1  UNL1       -0.0853
     30 C          11.7640    3.4534    0.0000 C.2     1  UNL1       -0.0796
     31 C          12.7425    3.6596    0.0000 C.3     1  UNL1       -0.0440
     32 C          11.0962    4.1977    0.0000 C.3     1  UNL1       -0.0440
     33 H           7.8022   -2.0347    0.0000 H       1  UNL1        0.0312
     34 H           6.0179   -2.0557    0.0000 H       1  UNL1        0.0334
     35 H           9.7148    0.3212    0.0000 H       1  UNL1        0.0309
     36 H           5.9847    0.4672    0.0000 H       1  UNL1        0.0271
     37 H           5.5862   -0.2230    0.0000 H       1  UNL1        0.0271
     38 H           7.4613    0.8596    0.0000 H       1  UNL1        0.0271
     39 H           6.6643    0.8596    0.0000 H       1  UNL1        0.0271
     40 H           8.6240   -1.9870    0.0000 H       1  UNL1        0.0271
     41 H           9.4124   -1.7293    0.0000 H       1  UNL1        0.0271
     42 H           7.2969   -3.2373    0.0000 H       1  UNL1        0.0269
     43 H           7.6880   -2.5414    0.0000 H       1  UNL1        0.0269
     44 H           9.9195   -1.0301    0.0000 H       1  UNL1        0.0268
     45 H           9.9195   -0.2006    0.0000 H       1  UNL1        0.0268
     46 H           5.7835   -3.6606    0.0000 H       1  UNL1        0.0293
     47 H           6.5818   -3.6575    0.0000 H       1  UNL1        0.0293
     48 H           7.3088   -2.1154    0.0000 H       1  UNL1        0.0235
     49 H           7.9288   -2.7354    0.0000 H       1  UNL1        0.0235
     50 H           8.5488   -2.1154    0.0000 H       1  UNL1        0.0235
     51 H           4.7681   -0.5915    0.0000 H       1  UNL1        0.0270
     52 H           3.9700   -0.5761    0.0000 H       1  UNL1        0.0270
     53 H           5.6407   -0.0784    0.0000 H       1  UNL1        0.0235
     54 H           4.7938   -0.3054    0.0000 H       1  UNL1        0.0235
     55 H           5.0207   -1.1523    0.0000 H       1  UNL1        0.0235
     56 H           8.5488    0.8846    0.0000 H       1  UNL1        0.0235
     57 H           7.9288    1.5046    0.0000 H       1  UNL1        0.0235
     58 H           7.3088    0.8846    0.0000 H       1  UNL1        0.0235
     59 H           9.3783    1.7292    0.0000 H       1  UNL1        0.0301
     60 H           3.4025   -3.2910    0.0000 H       1  UNL1        0.0599
     61 H           3.2075   -1.0008    0.0000 H       1  UNL1        0.0290
     62 H           2.8004   -1.6875    0.0000 H       1  UNL1        0.0290
     63 H           5.8056   -3.9779    0.0000 H       1  UNL1        0.2102
     64 H           3.9106   -4.3077    0.0000 H       1  UNL1        0.0237
     65 H           4.6308   -4.8078    0.0000 H       1  UNL1        0.0237
     66 H           5.1309   -4.0876    0.0000 H       1  UNL1        0.0237
     67 H           3.3085   -3.7736    0.0000 H       1  UNL1        0.0237
     68 H           3.5387   -4.6196    0.0000 H       1  UNL1        0.0237
     69 H           4.3848   -4.3894    0.0000 H       1  UNL1        0.0237
     70 H          10.1848    0.7264    0.0000 H       1  UNL1        0.0271
     71 H          10.7780    1.2588    0.0000 H       1  UNL1        0.0271
     72 H           8.9793    2.2982    0.0000 H       1  UNL1        0.0233
     73 H           8.1038    2.3457    0.0000 H       1  UNL1        0.0233
     74 H           8.0564    1.4701    0.0000 H       1  UNL1        0.0233
     75 H           2.0000   -2.8556    0.0000 H       1  UNL1        0.2098
     76 H          10.4543    2.9163    0.0000 H       1  UNL1        0.0307
     77 H           9.8611    2.3840    0.0000 H       1  UNL1        0.0307
     78 H          11.8674    2.0414    0.0000 H       1  UNL1        0.0571
     79 H          11.5577    4.6117    0.0000 H       1  UNL1        0.0274
     80 H          10.6821    4.6591    0.0000 H       1  UNL1        0.0274
     81 H          12.8704    3.0529    0.0000 H       1  UNL1        0.0274
     82 H          13.3492    3.7874    0.0000 H       1  UNL1        0.0274
     83 H          10.6347    3.7836    0.0000 H       1  UNL1        0.0274
     84 H          12.6147    4.2663    0.0000 H       1  UNL1        0.0274
@<TRIPOS>BOND
     1     9     1    1
     2     1    63    1
     3    22     2    1
     4     2    75    1
     5     3     4    1
     6     3     6    1
     7     3    12    1
     8     3    17    1
     9     4     5    1
    10     4    13    1
    11     4    33    1
    12     5     7    1
    13     5    10    1
    14     5    19    1
    15     6     8    1
    16     6    11    1
    17     6    20    1
    18     7     9    1
    19     7    18    1
    20     7    34    1
    21     8    14    1
    22     8    21    1
    23     8    35    1
    24     9    15    1
    25     9    16    1
    26    10    11    1
    27    10    36    1
    28    10    37    1
    29    11    38    1
    30    11    39    1
    31    12    14    1
    32    12    40    1
    33    12    41    1
    34    13    15    1
    35    13    42    1
    36    13    43    1
    37    14    44    1
    38    14    45    1
    39    15    46    1
    40    15    47    1
    41    16    22    1
    42    16    24    1
    43    16    25    1
    44    17    48    1
    45    17    49    1
    46    17    50    1
    47    18    23    1
    48    18    51    1
    49    18    52    1
    50    19    53    1
    51    19    54    1
    52    19    55    1
    53    20    56    1
    54    20    57    1
    55    20    58    1
    56    21    26    1
    57    21    27    1
    58    21    59    1
    59    22    23    1
    60    22    60    1
    61    23    61    1
    62    23    62    1
    63    24    67    1
    64    24    68    1
    65    24    69    1
    66    25    64    1
    67    25    65    1
    68    25    66    1
    69    26    28    1
    70    26    70    1
    71    26    71    1
    72    27    72    1
    73    27    73    1
    74    27    74    1
    75    28    29    1
    76    28    76    1
    77    28    77    1
    78    29    30    2
    79    29    78    1
    80    30    31    1
    81    30    32    1
    82    31    81    1
    83    31    82    1
    84    31    84    1
    85    32    79    1
    86    32    80    1
    87    32    83    1
