@<TRIPOS>MOLECULE
IMPHY014604
 91 97 0 0 0
SMALL
GASTEIGER

@<TRIPOS>ATOM
      1 O           5.8645   -0.7929    0.0000 O.3     1  UNL1       -0.3877
      2 O           7.3820   -1.9617    0.0000 O.3     1  UNL1       -0.3790
      3 O           9.2047    1.8001    0.0000 O.3     1  UNL1       -0.3791
      4 O           5.4883    1.5486    0.0000 O.3     1  UNL1       -0.4545
      5 O           7.0795    3.1120    0.0000 O.3     1  UNL1       -0.3823
      6 O           5.0870    2.2581    0.0000 O.3     1  UNL1       -0.3767
      7 O          10.9556   -0.4700    0.0000 O.3     1  UNL1       -0.3910
      8 O          10.0707   -2.4350    0.0000 O.3     1  UNL1       -0.3823
      9 O           5.3330   -0.1765    0.0000 O.2     1  UNL1       -0.2449
     10 O           0.9288    1.0894    0.0000 O.3     1  UNL1       -0.4951
     11 N          10.4000   -0.0289    0.0000 N.3     1  UNL1       -0.2979
     12 C           8.4534    0.3663    0.0000 C.3     1  UNL1        0.0222
     13 C           8.4534   -0.5013    0.0000 C.3     1  UNL1        0.0067
     14 C           7.7751    0.9073    0.0000 C.3     1  UNL1       -0.0195
     15 C           9.4553    0.2603    0.0000 C.3     1  UNL1        0.0268
     16 C           6.9292   -0.8491    0.0000 C.3     1  UNL1        0.0310
     17 C           6.9292    0.7142    0.0000 C.3     1  UNL1        0.0318
     18 C           6.5528   -0.0675    0.0000 C.3     1  UNL1        0.0817
     19 C           7.7751   -1.0422    0.0000 C.3     1  UNL1        0.0694
     20 C           9.2047   -0.9350    0.0000 C.3     1  UNL1        0.0386
     21 C           9.2047    0.8001    0.0000 C.3     1  UNL1        0.0683
     22 C           7.8528    1.7713    0.0000 C.3     1  UNL1       -0.0141
     23 C           7.0551    2.1123    0.0000 C.3     1  UNL1        0.1293
     24 C           6.4843    1.4590    0.0000 C.3     1  UNL1        0.1400
     25 C           5.9079    0.2025    0.0000 C.3     1  UNL1        0.0060
     26 C          10.4000   -0.7808    0.0000 C.3     1  UNL1        0.0097
     27 C           9.9561   -0.5013    0.0000 C.3     1  UNL1        0.0668
     28 C           5.9079    1.6870    0.0000 C.3     1  UNL1        0.0931
     29 C           9.9561    0.3663    0.0000 C.3     1  UNL1        0.0008
     30 C           9.2047   -1.9350    0.0000 C.3     1  UNL1        0.0568
     31 C          11.2040    0.5658    0.0000 C.3     1  UNL1       -0.0036
     32 C           7.9819   -2.7618    0.0000 C.3     1  UNL1        0.0368
     33 C          12.1210    0.1669    0.0000 C.3     1  UNL1       -0.0523
     34 C          10.0707    2.3001    0.0000 C.3     1  UNL1        0.0368
     35 C           4.9127    0.7309    0.0000 C.2     1  UNL1        0.3395
     36 C           5.1712    3.2545    0.0000 C.3     1  UNL1        0.0369
     37 C          10.0707   -3.4350    0.0000 C.3     1  UNL1        0.0365
     38 C           3.9167    0.8205    0.0000 C.ar    1  UNL1        0.0592
     39 C           3.4963    1.7279    0.0000 C.ar    1  UNL1       -0.0443
     40 C           3.3411    0.0028    0.0000 C.ar    1  UNL1       -0.0443
     41 C           2.5004    1.8175    0.0000 C.ar    1  UNL1       -0.0192
     42 C           2.3451    0.0924    0.0000 C.ar    1  UNL1       -0.0192
     43 C           1.9248    0.9998    0.0000 C.ar    1  UNL1        0.1201
     44 C           0.3532    0.2717    0.0000 C.3     1  UNL1        0.0788
     45 H           8.5169   -1.3489    0.0000 H       1  UNL1        0.0340
     46 H           8.5567    1.2413    0.0000 H       1  UNL1        0.0313
     47 H           9.7673    1.0510    0.0000 H       1  UNL1        0.0473
     48 H           6.3993   -1.5137    0.0000 H       1  UNL1        0.0369
     49 H           6.0801    0.6761    0.0000 H       1  UNL1        0.0368
     50 H           7.9755   -1.6289    0.0000 H       1  UNL1        0.0603
     51 H           8.6678    1.1101    0.0000 H       1  UNL1        0.0603
     52 H           8.0356    2.3638    0.0000 H       1  UNL1        0.0298
     53 H           8.4612    1.6515    0.0000 H       1  UNL1        0.0298
     54 H           6.2534    2.0344    0.0000 H       1  UNL1        0.0768
     55 H           5.7460   -0.3960    0.0000 H       1  UNL1        0.0319
     56 H           5.2933    0.2841    0.0000 H       1  UNL1        0.0319
     57 H          11.0195   -0.7543    0.0000 H       1  UNL1        0.0434
     58 H          10.4530   -1.3985    0.0000 H       1  UNL1        0.0434
     59 H          10.1259   -1.0976    0.0000 H       1  UNL1        0.0601
     60 H           5.9861    2.3020    0.0000 H       1  UNL1        0.0627
     61 H          10.1681    0.9489    0.0000 H       1  UNL1        0.0315
     62 H          10.5666    0.2587    0.0000 H       1  UNL1        0.0315
     63 H           8.9927   -2.5176    0.0000 H       1  UNL1        0.0566
     64 H           8.5941   -1.8274    0.0000 H       1  UNL1        0.0566
     65 H           5.7197   -1.3957    0.0000 H       1  UNL1        0.2102
     66 H          10.7544    0.9926    0.0000 H       1  UNL1        0.0424
     67 H          11.5463    1.0827    0.0000 H       1  UNL1        0.0424
     68 H           6.5503    3.4350    0.0000 H       1  UNL1        0.2104
     69 H          11.2822   -0.9970    0.0000 H       1  UNL1        0.2098
     70 H           8.4780   -2.3899    0.0000 H       1  UNL1        0.0524
     71 H           8.3538   -3.2579    0.0000 H       1  UNL1        0.0524
     72 H           7.4858   -3.1337    0.0000 H       1  UNL1        0.0524
     73 H          12.3683    0.7354    0.0000 H       1  UNL1        0.0242
     74 H          12.6895   -0.0805    0.0000 H       1  UNL1        0.0242
     75 H          11.8737   -0.4017    0.0000 H       1  UNL1        0.0242
     76 H           9.7608    2.8370    0.0000 H       1  UNL1        0.0524
     77 H          10.6077    2.6101    0.0000 H       1  UNL1        0.0524
     78 H          10.3807    1.7632    0.0000 H       1  UNL1        0.0524
     79 H           4.5534    3.3067    0.0000 H       1  UNL1        0.0524
     80 H           5.2234    3.8723    0.0000 H       1  UNL1        0.0524
     81 H           5.7890    3.2024    0.0000 H       1  UNL1        0.0524
     82 H          10.6907   -3.4350    0.0000 H       1  UNL1        0.0523
     83 H          10.0707   -4.0550    0.0000 H       1  UNL1        0.0523
     84 H           9.4507   -3.4350    0.0000 H       1  UNL1        0.0523
     85 H           3.8532    2.2349    0.0000 H       1  UNL1        0.0627
     86 H           3.6017   -0.5598    0.0000 H       1  UNL1        0.0627
     87 H           2.2398    2.3801    0.0000 H       1  UNL1        0.0654
     88 H           1.9882   -0.4145    0.0000 H       1  UNL1        0.0654
     89 H           0.8601   -0.0852    0.0000 H       1  UNL1        0.0660
     90 H          -0.0037   -0.2353    0.0000 H       1  UNL1        0.0660
     91 H          -0.1538    0.6286    0.0000 H       1  UNL1        0.0660
@<TRIPOS>BOND
     1    18     1    1
     2     1    65    1
     3    19     2    1
     4     2    32    1
     5    21     3    1
     6     3    34    1
     7    24     4    1
     8     4    35    1
     9    23     5    1
    10     5    68    1
    11    28     6    1
    12     6    36    1
    13    27     7    1
    14     7    69    1
    15     8    30    1
    16     8    37    1
    17     9    35    2
    18    10    43    1
    19    10    44    1
    20    11    15    1
    21    11    26    1
    22    11    31    1
    23    12    13    1
    24    12    14    1
    25    12    15    1
    26    12    21    1
    27    13    19    1
    28    13    20    1
    29    13    45    1
    30    14    17    1
    31    14    22    1
    32    14    46    1
    33    15    16    1
    34    15    47    1
    35    16    18    1
    36    16    19    1
    37    16    48    1
    38    17    18    1
    39    17    24    1
    40    17    49    1
    41    18    25    1
    42    19    50    1
    43    20    26    1
    44    20    27    1
    45    20    30    1
    46    21    29    1
    47    21    51    1
    48    22    23    1
    49    22    52    1
    50    22    53    1
    51    23    24    1
    52    23    28    1
    53    24    54    1
    54    25    28    1
    55    25    55    1
    56    25    56    1
    57    26    57    1
    58    26    58    1
    59    27    29    1
    60    27    59    1
    61    28    60    1
    62    29    61    1
    63    29    62    1
    64    30    63    1
    65    30    64    1
    66    31    33    1
    67    31    66    1
    68    31    67    1
    69    32    70    1
    70    32    71    1
    71    32    72    1
    72    33    73    1
    73    33    74    1
    74    33    75    1
    75    34    76    1
    76    34    77    1
    77    34    78    1
    78    35    38    1
    79    36    79    1
    80    36    80    1
    81    36    81    1
    82    37    82    1
    83    37    83    1
    84    37    84    1
    85    38    39   ar
    86    38    40   ar
    87    39    41   ar
    88    39    85    1
    89    40    42   ar
    90    40    86    1
    91    41    43   ar
    92    41    87    1
    93    42    43   ar
    94    42    88    1
    95    44    89    1
    96    44    90    1
    97    44    91    1
