@<TRIPOS>MOLECULE
IMPHY003260
 58 63 0 0 0
SMALL
GASTEIGER

@<TRIPOS>ATOM
      1 O           4.6080    0.6545    0.0000 O.3     1  UNL1       -0.4788
      2 O           8.1440    2.6960    0.0000 O.3     1  UNL1       -0.4810
      3 O           8.2083   -0.3842    0.0000 O.2     1  UNL1       -0.2866
      4 O           4.6258   -2.4896    0.0000 O.2     1  UNL1       -0.2868
      5 C           6.3840    0.6613    0.0000 C.ar    1  UNL1        0.0393
      6 C           7.2501    1.1613    0.0000 C.ar    1  UNL1        0.0285
      7 C           6.4001   -0.3802    0.0000 C.2     1  UNL1        0.0443
      8 C           5.5180    1.1613    0.0000 C.ar    1  UNL1        0.1381
      9 C           5.5021   -0.9079    0.0000 C.2     1  UNL1        0.0553
     10 C           4.6000   -0.3871    0.0000 C.3     1  UNL1        0.1479
     11 C           7.2501    2.1613    0.0000 C.ar    1  UNL1        0.1373
     12 C           9.0501    2.1822    0.0000 C.3     1  UNL1        0.1235
     13 C           5.5180    2.1613    0.0000 C.ar    1  UNL1        0.0280
     14 C           6.3840    2.6613    0.0000 C.ar    1  UNL1        0.0280
     15 C           8.1440    0.6267    0.0000 C.2     1  UNL1       -0.0506
     16 C           9.0501    1.1405    0.0000 C.2     1  UNL1       -0.0409
     17 C           7.3520   -0.9008    0.0000 C.2     1  UNL1        0.1950
     18 C           5.4937   -1.9929    0.0000 C.2     1  UNL1        0.1944
     19 C           7.3688   -1.9857    0.0000 C.ar    1  UNL1        0.0331
     20 C           6.4333   -2.5354    0.0000 C.ar    1  UNL1        0.0329
     21 C          10.0501    2.1860    0.0000 C.3     1  UNL1       -0.0215
     22 C           9.5467    3.0501    0.0000 C.3     1  UNL1       -0.0215
     23 C           3.7320   -0.8838    0.0000 C.2     1  UNL1       -0.0407
     24 C           4.6080    2.6682    0.0000 C.ar    1  UNL1       -0.0504
     25 C           6.4001    3.7028    0.0000 C.ar    1  UNL1       -0.0504
     26 C           4.6000    3.7098    0.0000 C.ar    1  UNL1       -0.0610
     27 C           5.5021    4.2306    0.0000 C.ar    1  UNL1       -0.0610
     28 C           8.3603   -2.5280    0.0000 C.ar    1  UNL1       -0.0502
     29 C           2.8680   -0.3804    0.0000 C.2     1  UNL1       -0.0759
     30 C           6.4246   -3.6655    0.0000 C.ar    1  UNL1       -0.0502
     31 C           8.3777   -3.6580    0.0000 C.ar    1  UNL1       -0.0610
     32 C           7.4034   -4.2306    0.0000 C.ar    1  UNL1       -0.0610
     33 C           2.0000   -0.8771    0.0000 C.3     1  UNL1       -0.0439
     34 C           2.8718    0.6196    0.0000 C.3     1  UNL1       -0.0439
     35 H           4.0648   -0.0740    0.0000 H       1  UNL1        0.0832
     36 H           8.1368    0.0067    0.0000 H       1  UNL1        0.0623
     37 H           9.5858    0.8285    0.0000 H       1  UNL1        0.0611
     38 H          10.0849    2.7422    0.0000 H       1  UNL1        0.0271
     39 H           9.8547    3.5882    0.0000 H       1  UNL1        0.0271
     40 H           9.0086    3.3580    0.0000 H       1  UNL1        0.0271
     41 H          10.0525    1.5660    0.0000 H       1  UNL1        0.0271
     42 H          10.6701    2.1884    0.0000 H       1  UNL1        0.0271
     43 H          10.0477    2.8060    0.0000 H       1  UNL1        0.0271
     44 H           3.7296   -1.5038    0.0000 H       1  UNL1        0.0611
     45 H           4.0747    2.3520    0.0000 H       1  UNL1        0.0625
     46 H           6.9406    4.0066    0.0000 H       1  UNL1        0.0625
     47 H           4.0619    4.0177    0.0000 H       1  UNL1        0.0618
     48 H           5.5044    4.8506    0.0000 H       1  UNL1        0.0618
     49 H           8.8912   -2.2077    0.0000 H       1  UNL1        0.0625
     50 H           5.8865   -3.9734    0.0000 H       1  UNL1        0.0625
     51 H           8.9182   -3.9618    0.0000 H       1  UNL1        0.0618
     52 H           7.4058   -4.8506    0.0000 H       1  UNL1        0.0618
     53 H           3.4918    0.6172    0.0000 H       1  UNL1        0.0274
     54 H           2.8742    1.2396    0.0000 H       1  UNL1        0.0274
     55 H           2.2518    0.6219    0.0000 H       1  UNL1        0.0274
     56 H           1.6921   -0.3390    0.0000 H       1  UNL1        0.0274
     57 H           1.4619   -1.1850    0.0000 H       1  UNL1        0.0274
     58 H           2.3079   -1.4152    0.0000 H       1  UNL1        0.0274
@<TRIPOS>BOND
     1     1     8    1
     2     1    10    1
     3     2    11    1
     4     2    12    1
     5     3    17    2
     6     4    18    2
     7     5     6   ar
     8     5     7    1
     9     5     8   ar
    10     6    11   ar
    11     6    15    1
    12     7     9    2
    13     7    17    1
    14     8    13   ar
    15     9    10    1
    16     9    18    1
    17    10    23    1
    18    10    35    1
    19    11    14   ar
    20    12    16    1
    21    12    21    1
    22    12    22    1
    23    13    14   ar
    24    13    24   ar
    25    14    25   ar
    26    15    16    2
    27    15    36    1
    28    16    37    1
    29    17    19    1
    30    18    20    1
    31    19    20   ar
    32    19    28   ar
    33    20    30   ar
    34    21    41    1
    35    21    42    1
    36    21    43    1
    37    22    38    1
    38    22    39    1
    39    22    40    1
    40    23    29    2
    41    23    44    1
    42    24    26   ar
    43    24    45    1
    44    25    27   ar
    45    25    46    1
    46    26    27   ar
    47    26    47    1
    48    27    48    1
    49    28    31   ar
    50    28    49    1
    51    29    33    1
    52    29    34    1
    53    30    32   ar
    54    30    50    1
    55    31    32   ar
    56    31    51    1
    57    32    52    1
    58    33    56    1
    59    33    57    1
    60    33    58    1
    61    34    53    1
    62    34    54    1
    63    34    55    1
