@<TRIPOS>MOLECULE
IMPHY008877
 44 48 0 0 0
SMALL
GASTEIGER

@<TRIPOS>ATOM
      1 O           6.0010   -1.7197    0.0000 O.3     1  UNL1       -0.3157
      2 O          10.3474   -1.2743    0.0000 O.3     1  UNL1       -0.3157
      3 O           5.1350   -0.2197    0.0000 O.3     1  UNL1       -0.4440
      4 O           8.6155   -1.2543    0.0000 O.3     1  UNL1       -0.4502
      5 O           3.4030   -3.2197    0.0000 O.3     1  UNL1       -0.2173
      6 O           5.1350   -4.2197    0.0000 O.3     1  UNL1       -0.2176
      7 O          10.3127   -4.2741    0.0000 O.3     1  UNL1       -0.2173
      8 O          12.0562   -3.2942    0.0000 O.3     1  UNL1       -0.2176
      9 O           3.4030   -1.2197    0.0000 O.3     1  UNL1       -0.2135
     10 O           8.5923   -3.2542    0.0000 O.3     1  UNL1       -0.2135
     11 O           6.8671   -4.2197    0.0000 O.3     1  UNL1       -0.2176
     12 O          12.9395   -1.8043    0.0000 O.3     1  UNL1       -0.2176
     13 O           6.8671    1.7803    0.0000 O.2     1  UNL1       -0.4500
     14 O           6.8671   -1.2197    0.0000 O.2     1  UNL1       -0.2830
     15 O          10.3972    1.8045    0.0000 O.3     1  UNL1       -0.2864
     16 O           4.2690    4.2803    0.0000 O.3     1  UNL1       -0.2831
     17 O           2.5369    3.2803    0.0000 O.3     1  UNL1       -0.2831
     18 C           4.2690   -2.7197    0.0000 C.3     1  UNL1        0.2211
     19 C           5.1350   -3.2197    0.0000 C.3     1  UNL1        0.2145
     20 C          10.3243   -3.2742    0.0000 C.3     1  UNL1        0.2211
     21 C          11.1960   -2.7842    0.0000 C.3     1  UNL1        0.2145
     22 C           4.2690   -1.7197    0.0000 C.3     1  UNL1        0.2542
     23 C           9.4641   -2.7642    0.0000 C.3     1  UNL1        0.2542
     24 C           6.0010   -2.7197    0.0000 C.3     1  UNL1        0.1846
     25 C          11.2076   -1.7843    0.0000 C.3     1  UNL1        0.1846
     26 C           5.1350   -1.2197    0.0000 C.3     1  UNL1        0.3220
     27 C           9.4757   -1.7643    0.0000 C.3     1  UNL1        0.3218
     28 C           6.8671   -3.2197    0.0000 C.3     1  UNL1        0.2142
     29 C          12.0793   -1.2943    0.0000 C.3     1  UNL1        0.2142
     30 C           8.6270   -0.2544    0.0000 C.ar    1  UNL1        0.1507
     31 C           6.0010    0.2803    0.0000 C.ar    1  UNL1        0.2144
     32 C           7.7331    0.2803    0.0000 C.ar    1  UNL1        0.1108
     33 C           6.8671   -0.2197    0.0000 C.ar    1  UNL1        0.2382
     34 C           6.0010    1.2803    0.0000 C.ar    1  UNL1        0.1823
     35 C           7.7331    1.2803    0.0000 C.ar    1  UNL1        0.1547
     36 C           9.5331    0.2595    0.0000 C.ar    1  UNL1        0.0793
     37 C           8.6270    1.8150    0.0000 C.ar    1  UNL1        0.0798
     38 C           9.5331    1.3011    0.0000 C.ar    1  UNL1        0.2018
     39 C           5.1350    1.7803    0.0000 C.ar    1  UNL1        0.0411
     40 C           5.1350    2.7803    0.0000 C.ar    1  UNL1        0.0485
     41 C           4.2690    1.2803    0.0000 C.ar    1  UNL1        0.0066
     42 C           4.2690    3.2803    0.0000 C.ar    1  UNL1        0.2344
     43 C           3.4030    1.7803    0.0000 C.ar    1  UNL1        0.0455
     44 C           3.4030    2.7803    0.0000 C.ar    1  UNL1        0.2343
@<TRIPOS>BOND
     1     1    24    1
     2     1    26    1
     3     2    25    1
     4     2    27    1
     5     3    31    1
     6     4    30    1
     7    11    28    1
     8    12    29    1
     9    13    34   ar
    10    13    35   ar
    11    14    33    2
    12    15    38    1
    13    16    42    1
    14    17    44    1
    15    18     5    1
    16    18    19    1
    17    18    22    1
    18    19     6    1
    19    19    24    1
    20    20     7    1
    21    20    21    1
    22    20    23    1
    23    21     8    1
    24    21    25    1
    25    22     9    1
    26    22    26    1
    27    23    10    1
    28    23    27    1
    29    24    28    1
    30    25    29    1
    31    26     3    1
    32    27     4    1
    33    30    32   ar
    34    30    36   ar
    35    31    33   ar
    36    31    34   ar
    37    32    33   ar
    38    32    35   ar
    39    34    39    1
    40    35    37   ar
    41    36    38   ar
    42    37    38   ar
    43    39    40   ar
    44    39    41   ar
    45    40    42   ar
    46    41    43   ar
    47    42    44   ar
    48    43    44   ar
