@<TRIPOS>MOLECULE
IMPHY003325
 24 24 0 0 0
SMALL
GASTEIGER

@<TRIPOS>ATOM
      1 O           5.1350   -1.7500    0.0000 O.3     1  UNL1       -0.3803
      2 O           4.2690    2.7500    0.0000 O.3     1  UNL1       -0.5033
      3 O           2.5369    1.7500    0.0000 O.3     1  UNL1       -0.5033
      4 O           6.8671   -2.7500    0.0000 O.3     1  UNL1       -0.4788
      5 O           7.7331   -1.2500    0.0000 O.2     1  UNL1       -0.2481
      6 C           6.0010   -0.2500    0.0000 C.3     1  UNL1        0.0090
      7 C           5.1350    0.2500    0.0000 C.ar    1  UNL1       -0.0407
      8 C           6.0010   -1.2500    0.0000 C.3     1  UNL1        0.1553
      9 C           5.1350    1.2500    0.0000 C.ar    1  UNL1       -0.0133
     10 C           4.2690   -0.2500    0.0000 C.ar    1  UNL1       -0.0548
     11 C           4.2690    1.7500    0.0000 C.ar    1  UNL1        0.1585
     12 C           3.4030    0.2500    0.0000 C.ar    1  UNL1       -0.0163
     13 C           3.4030    1.2500    0.0000 C.ar    1  UNL1        0.1582
     14 C           6.8671   -1.7500    0.0000 C.2     1  UNL1        0.3340
     15 H           6.6116   -0.3577    0.0000 H       1  UNL1        0.0344
     16 H           6.2131    0.3326    0.0000 H       1  UNL1        0.0344
     17 H           5.4641   -0.9400    0.0000 H       1  UNL1        0.0713
     18 H           5.6720    1.5600    0.0000 H       1  UNL1        0.0658
     19 H           4.2690   -0.8700    0.0000 H       1  UNL1        0.0621
     20 H           2.8660   -0.0600    0.0000 H       1  UNL1        0.0655
     21 H           5.1350   -2.3700    0.0000 H       1  UNL1        0.2105
     22 H           4.8059    3.0600    0.0000 H       1  UNL1        0.2923
     23 H           2.0000    1.4400    0.0000 H       1  UNL1        0.2923
     24 H           7.4040   -3.0600    0.0000 H       1  UNL1        0.2951
@<TRIPOS>BOND
     1     8     1    1
     2     1    21    1
     3     2    11    1
     4     2    22    1
     5     3    13    1
     6     3    23    1
     7     4    14    1
     8     4    24    1
     9     5    14    2
    10     6     7    1
    11     6     8    1
    12     6    15    1
    13     6    16    1
    14     7     9   ar
    15     7    10   ar
    16     8    14    1
    17     8    17    1
    18     9    11   ar
    19     9    18    1
    20    10    12   ar
    21    10    19    1
    22    11    13   ar
    23    12    13   ar
    24    12    20    1
