@<TRIPOS>MOLECULE
IMPHY003169
 82 85 0 0 0
SMALL
GASTEIGER

@<TRIPOS>ATOM
      1 O           2.5405   -1.2811    0.0000 O.3     1  UNL1       -0.3892
      2 O           2.5244   -3.3727    0.0000 O.3     1  UNL1       -0.3892
      3 O          10.8207    0.3968    0.0000 O.3     1  UNL1       -0.3890
      4 O           9.7956    2.8359    0.0000 O.3     1  UNL1       -0.3890
      5 C           7.9174   -0.3204    0.0000 C.3     1  UNL1       -0.0258
      6 C           7.9174   -1.3204    0.0000 C.3     1  UNL1       -0.0323
      7 C           7.0514   -1.8204    0.0000 C.3     1  UNL1       -0.0344
      8 C           6.1854   -1.3204    0.0000 C.3     1  UNL1       -0.0322
      9 C           5.2754   -1.8272    0.0000 C.3     1  UNL1       -0.0237
     10 C           8.8637   -0.0156    0.0000 C.3     1  UNL1       -0.0304
     11 C           7.0514    0.1796    0.0000 C.3     1  UNL1       -0.0468
     12 C           5.2674   -2.8688    0.0000 C.3     1  UNL1       -0.0329
     13 C           6.1854   -0.3204    0.0000 C.3     1  UNL1       -0.0489
     14 C           8.8637   -1.6251    0.0000 C.3     1  UNL1       -0.0492
     15 C           7.0675   -2.8619    0.0000 C.3     1  UNL1       -0.0494
     16 C           9.4473   -0.8204    0.0000 C.3     1  UNL1       -0.0491
     17 C           6.1694   -3.3896    0.0000 C.3     1  UNL1       -0.0494
     18 C           4.3486   -1.2631    0.0000 C.3     1  UNL1       -0.0185
     19 C           7.9174    0.6796    0.0000 C.3     1  UNL1       -0.0590
     20 C           9.1743    0.9349    0.0000 C.3     1  UNL1       -0.0120
     21 C           4.3319   -3.4185    0.0000 C.3     1  UNL1       -0.0211
     22 C           5.2831   -0.8272    0.0000 C.3     1  UNL1       -0.0590
     23 C           3.4007   -1.7911    0.0000 C.3     1  UNL1        0.0816
     24 C           3.3923   -2.8760    0.0000 C.3     1  UNL1        0.0813
     25 C          10.1528    1.1411    0.0000 C.3     1  UNL1        0.0841
     26 C           8.5065    1.6792    0.0000 C.3     1  UNL1       -0.0597
     27 C          10.4635    2.0916    0.0000 C.3     1  UNL1        0.0841
     28 C          11.4420    2.2979    0.0000 C.3     1  UNL1       -0.0130
     29 C          11.7527    3.2484    0.0000 C.3     1  UNL1       -0.0417
     30 C          12.1098    1.5536    0.0000 C.3     1  UNL1       -0.0597
     31 C          12.7312    3.4546    0.0000 C.3     1  UNL1       -0.0623
     32 C          11.0848    3.9927    0.0000 C.3     1  UNL1       -0.0623
     33 H           7.9830   -1.9369    0.0000 H       1  UNL1        0.0309
     34 H           7.7908   -2.2397    0.0000 H       1  UNL1        0.0306
     35 H           6.9215   -0.8954    0.0000 H       1  UNL1        0.0309
     36 H           9.7034    0.1163    0.0000 H       1  UNL1        0.0310
     37 H           7.4500    0.6546    0.0000 H       1  UNL1        0.0271
     38 H           6.6529    0.6546    0.0000 H       1  UNL1        0.0271
     39 H           5.2706   -3.7188    0.0000 H       1  UNL1        0.0307
     40 H           5.9733    0.2623    0.0000 H       1  UNL1        0.0268
     41 H           5.5748   -0.4280    0.0000 H       1  UNL1        0.0268
     42 H           8.6126   -2.1920    0.0000 H       1  UNL1        0.0268
     43 H           9.4010   -1.9343    0.0000 H       1  UNL1        0.0268
     44 H           7.2855   -3.4423    0.0000 H       1  UNL1        0.0268
     45 H           7.6766   -2.7464    0.0000 H       1  UNL1        0.0268
     46 H           9.9081   -1.2351    0.0000 H       1  UNL1        0.0268
     47 H           9.9081   -0.4056    0.0000 H       1  UNL1        0.0268
     48 H           5.7721   -3.8656    0.0000 H       1  UNL1        0.0268
     49 H           6.5704   -3.8625    0.0000 H       1  UNL1        0.0268
     50 H           4.7568   -0.7965    0.0000 H       1  UNL1        0.0296
     51 H           3.9586   -0.7811    0.0000 H       1  UNL1        0.0296
     52 H           8.5374    0.6796    0.0000 H       1  UNL1        0.0235
     53 H           7.9174    1.2996    0.0000 H       1  UNL1        0.0235
     54 H           7.2974    0.6796    0.0000 H       1  UNL1        0.0235
     55 H           8.5676    0.8070    0.0000 H       1  UNL1        0.0327
     56 H           3.9346   -3.8945    0.0000 H       1  UNL1        0.0294
     57 H           4.7329   -3.8914    0.0000 H       1  UNL1        0.0294
     58 H           5.9031   -0.8320    0.0000 H       1  UNL1        0.0235
     59 H           5.2879   -0.2072    0.0000 H       1  UNL1        0.0235
     60 H           4.6631   -0.8224    0.0000 H       1  UNL1        0.0235
     61 H           2.8608   -2.0959    0.0000 H       1  UNL1        0.0619
     62 H           2.8572   -2.5629    0.0000 H       1  UNL1        0.0619
     63 H           9.9602    0.5518    0.0000 H       1  UNL1        0.0622
     64 H           8.9680    2.0933    0.0000 H       1  UNL1        0.0233
     65 H           8.0924    2.1407    0.0000 H       1  UNL1        0.0233
     66 H           8.0450    1.2651    0.0000 H       1  UNL1        0.0233
     67 H          10.6561    2.6810    0.0000 H       1  UNL1        0.0622
     68 H           2.0000   -1.5849    0.0000 H       1  UNL1        0.2099
     69 H           2.5220   -3.9927    0.0000 H       1  UNL1        0.2099
     70 H          11.2494    1.7085    0.0000 H       1  UNL1        0.0326
     71 H          11.4273    0.5247    0.0000 H       1  UNL1        0.2099
     72 H          11.9453    3.8377    0.0000 H       1  UNL1        0.0299
     73 H           9.9883    3.4253    0.0000 H       1  UNL1        0.2099
     74 H          11.6484    1.1395    0.0000 H       1  UNL1        0.0233
     75 H          12.5239    1.0921    0.0000 H       1  UNL1        0.0233
     76 H          12.5713    1.9676    0.0000 H       1  UNL1        0.0233
     77 H          12.8590    2.8479    0.0000 H       1  UNL1        0.0232
     78 H          11.5463    4.4067    0.0000 H       1  UNL1        0.0232
     79 H          13.3378    3.5824    0.0000 H       1  UNL1        0.0232
     80 H          12.6033    4.0613    0.0000 H       1  UNL1        0.0232
     81 H          10.6708    4.4542    0.0000 H       1  UNL1        0.0232
     82 H          10.6234    3.5786    0.0000 H       1  UNL1        0.0232
@<TRIPOS>BOND
     1    23     1    1
     2     1    68    1
     3    24     2    1
     4     2    69    1
     5    25     3    1
     6     3    71    1
     7    27     4    1
     8     4    73    1
     9     5     6    1
    10     5    10    1
    11     5    11    1
    12     5    19    1
    13     6     7    1
    14     6    14    1
    15     6    33    1
    16     7     8    1
    17     7    15    1
    18     7    34    1
    19     8     9    1
    20     8    13    1
    21     8    35    1
    22     9    12    1
    23     9    18    1
    24     9    22    1
    25    10    16    1
    26    10    20    1
    27    10    36    1
    28    11    13    1
    29    11    37    1
    30    11    38    1
    31    12    17    1
    32    12    21    1
    33    12    39    1
    34    13    40    1
    35    13    41    1
    36    14    16    1
    37    14    42    1
    38    14    43    1
    39    15    17    1
    40    15    44    1
    41    15    45    1
    42    16    46    1
    43    16    47    1
    44    17    48    1
    45    17    49    1
    46    18    23    1
    47    18    50    1
    48    18    51    1
    49    19    52    1
    50    19    53    1
    51    19    54    1
    52    20    25    1
    53    20    26    1
    54    20    55    1
    55    21    24    1
    56    21    56    1
    57    21    57    1
    58    22    58    1
    59    22    59    1
    60    22    60    1
    61    23    24    1
    62    23    61    1
    63    24    62    1
    64    25    27    1
    65    25    63    1
    66    26    64    1
    67    26    65    1
    68    26    66    1
    69    27    28    1
    70    27    67    1
    71    28    29    1
    72    28    30    1
    73    28    70    1
    74    29    31    1
    75    29    32    1
    76    29    72    1
    77    30    74    1
    78    30    75    1
    79    30    76    1
    80    31    77    1
    81    31    79    1
    82    31    80    1
    83    32    78    1
    84    32    81    1
    85    32    82    1
