@<TRIPOS>MOLECULE
IMPHY010181
 61 63 0 0 0
SMALL
GASTEIGER

@<TRIPOS>ATOM
      1 O           8.3660    0.0675    0.0000 O.3     1  UNL1       -0.4523
      2 O           5.0000    4.1656    0.0000 O.2     1  UNL1       -0.2708
      3 O           5.5000   -1.8966    0.0000 O.2     1  UNL1       -0.2708
      4 O          10.5981    0.9335    0.0000 O.3     1  UNL1       -0.5033
      5 N           2.5000   -0.1645    0.0000 N.3     1  UNL1       -0.3159
      6 N           5.0000    2.4335    0.0000 N.am    1  UNL1       -0.3118
      7 N           4.0000   -2.7626    0.0000 N.am    1  UNL1       -0.3118
      8 C           2.5000    1.5675    0.0000 C.3     1  UNL1       -0.0390
      9 C           2.0000    0.7015    0.0000 C.3     1  UNL1       -0.0041
     10 C           3.5000    1.5675    0.0000 C.3     1  UNL1       -0.0362
     11 C           2.0000   -1.0306    0.0000 C.3     1  UNL1       -0.0027
     12 C           2.5000   -1.8966    0.0000 C.3     1  UNL1       -0.0248
     13 C           4.0000    2.4335    0.0000 C.3     1  UNL1        0.0119
     14 C           3.5000   -1.8966    0.0000 C.3     1  UNL1        0.0130
     15 C           5.5000    3.2996    0.0000 C.2     1  UNL1        0.2369
     16 C           5.0000   -2.7626    0.0000 C.2     1  UNL1        0.2369
     17 C           6.5000    3.2996    0.0000 C.2     1  UNL1        0.0007
     18 C           8.0000    2.4335    0.0000 C.ar    1  UNL1       -0.0212
     19 C           5.5000   -3.6286    0.0000 C.2     1  UNL1        0.0007
     20 C           7.0000    2.4335    0.0000 C.2     1  UNL1       -0.0496
     21 C           7.0000   -2.7626    0.0000 C.ar    1  UNL1       -0.0246
     22 C           8.8660    0.9335    0.0000 C.ar    1  UNL1        0.1701
     23 C           6.5000   -3.6286    0.0000 C.2     1  UNL1       -0.0497
     24 C           8.0000    1.4335    0.0000 C.ar    1  UNL1       -0.0085
     25 C           8.0000   -1.0306    0.0000 C.ar    1  UNL1        0.1286
     26 C           8.8660    2.9335    0.0000 C.ar    1  UNL1       -0.0509
     27 C           9.7320    1.4335    0.0000 C.ar    1  UNL1        0.1591
     28 C           8.0000   -2.7626    0.0000 C.ar    1  UNL1       -0.0511
     29 C           6.4899   -1.8947    0.0000 C.ar    1  UNL1       -0.0511
     30 C           8.5000   -1.8966    0.0000 C.ar    1  UNL1       -0.0188
     31 C           6.9933   -1.0228    0.0000 C.ar    1  UNL1       -0.0188
     32 C           9.7320    2.4335    0.0000 C.ar    1  UNL1       -0.0159
     33 H           2.6077    2.1781    0.0000 H       1  UNL1        0.0278
     34 H           1.9174    1.7796    0.0000 H       1  UNL1        0.0278
     35 H           1.5250    1.1000    0.0000 H       1  UNL1        0.0424
     36 H           1.5250    0.3030    0.0000 H       1  UNL1        0.0424
     37 H           3.3923    0.9569    0.0000 H       1  UNL1        0.0281
     38 H           4.0826    1.3554    0.0000 H       1  UNL1        0.0281
     39 H           1.5250   -0.6320    0.0000 H       1  UNL1        0.0424
     40 H           1.5250   -1.4291    0.0000 H       1  UNL1        0.0424
     41 H           3.1200   -0.1645    0.0000 H       1  UNL1        0.1219
     42 H           1.9174   -2.1086    0.0000 H       1  UNL1        0.0293
     43 H           2.6077   -2.5072    0.0000 H       1  UNL1        0.0293
     44 H           4.1077    3.0441    0.0000 H       1  UNL1        0.0462
     45 H           3.4174    2.6456    0.0000 H       1  UNL1        0.0462
     46 H           4.0826   -1.6845    0.0000 H       1  UNL1        0.0462
     47 H           3.3923   -1.2860    0.0000 H       1  UNL1        0.0462
     48 H           5.3100    1.8966    0.0000 H       1  UNL1        0.1490
     49 H           3.6900   -3.2996    0.0000 H       1  UNL1        0.1490
     50 H           6.8100    3.8365    0.0000 H       1  UNL1        0.0669
     51 H           5.1900   -4.1656    0.0000 H       1  UNL1        0.0669
     52 H           6.6900    1.8966    0.0000 H       1  UNL1        0.0625
     53 H           7.4631    1.1235    0.0000 H       1  UNL1        0.0661
     54 H           6.8100   -4.1656    0.0000 H       1  UNL1        0.0625
     55 H           8.8660    3.5535    0.0000 H       1  UNL1        0.0625
     56 H           8.3100   -3.2996    0.0000 H       1  UNL1        0.0625
     57 H           5.8699   -1.8971    0.0000 H       1  UNL1        0.0625
     58 H           9.1200   -1.8966    0.0000 H       1  UNL1        0.0654
     59 H           6.6854   -0.4847    0.0000 H       1  UNL1        0.0654
     60 H          10.2690    2.7435    0.0000 H       1  UNL1        0.0655
     61 H          11.1350    1.2435    0.0000 H       1  UNL1        0.2923
@<TRIPOS>BOND
     1     1    22    1
     2     1    25    1
     3     2    15    2
     4     3    16    2
     5     4    27    1
     6     4    61    1
     7     5     9    1
     8     5    11    1
     9     5    41    1
    10     6    13    1
    11     6    15   am
    12     6    48    1
    13     7    14    1
    14     7    16   am
    15     7    49    1
    16     8     9    1
    17     8    10    1
    18     8    33    1
    19     8    34    1
    20     9    35    1
    21     9    36    1
    22    10    13    1
    23    10    37    1
    24    10    38    1
    25    11    12    1
    26    11    39    1
    27    11    40    1
    28    12    14    1
    29    12    42    1
    30    12    43    1
    31    13    44    1
    32    13    45    1
    33    14    46    1
    34    14    47    1
    35    15    17    1
    36    16    19    1
    37    17    20    2
    38    17    50    1
    39    18    20    1
    40    18    24   ar
    41    18    26   ar
    42    19    23    2
    43    19    51    1
    44    20    52    1
    45    21    23    1
    46    21    28   ar
    47    21    29   ar
    48    22    24   ar
    49    22    27   ar
    50    23    54    1
    51    24    53    1
    52    25    30   ar
    53    25    31   ar
    54    26    32   ar
    55    26    55    1
    56    27    32   ar
    57    28    30   ar
    58    28    56    1
    59    29    31   ar
    60    29    57    1
    61    30    58    1
    62    31    59    1
    63    32    60    1
