@<TRIPOS>MOLECULE
IMPHY008373
 45 48 0 0 0
SMALL
GASTEIGER

@<TRIPOS>ATOM
      1 CL          4.6775    0.0000    0.0000 Cl      1  UNL1        0.0000
      2 O           1.0688    5.9160    0.0000 O.3     2  UNL2       -0.4526
      3 O           1.0688    7.5925    0.0000 O.3     2  UNL2       -0.4526
      4 O           9.2314    6.2935    0.0000 O.3     2  UNL2       -0.4914
      5 O           9.2475    4.2019    0.0000 O.3     2  UNL2       -0.4914
      6 N           4.7044    4.7127    0.0000 N.ar    2  UNL2       -0.1988
      7 C           4.7204    5.7542    0.0000 C.ar    2  UNL2        0.2231
      8 C           5.5864    6.2542    0.0000 C.ar    2  UNL2        0.0548
      9 C           3.8544    6.2542    0.0000 C.ar    2  UNL2        0.0576
     10 C           6.4964    5.7474    0.0000 C.ar    2  UNL2        0.0049
     11 C           3.8544    7.2542    0.0000 C.ar    2  UNL2       -0.0079
     12 C           6.5045    4.7058    0.0000 C.ar    2  UNL2        0.0500
     13 C           5.6024    4.1850    0.0000 C.ar    2  UNL2        0.1794
     14 C           5.5864    7.2542    0.0000 C.ar    2  UNL2       -0.0471
     15 C           2.9604    5.7196    0.0000 C.ar    2  UNL2       -0.0021
     16 C           4.7204    7.7542    0.0000 C.ar    2  UNL2       -0.0529
     17 C           2.9604    7.7889    0.0000 C.ar    2  UNL2       -0.0082
     18 C           2.0544    6.2334    0.0000 C.ar    2  UNL2        0.1670
     19 C           7.4233    6.3115    0.0000 C.ar    2  UNL2       -0.0076
     20 C           2.0544    7.2751    0.0000 C.ar    2  UNL2        0.1668
     21 C           7.4399    4.1561    0.0000 C.ar    2  UNL2       -0.0029
     22 C           3.8326    4.2228    0.0000 C.3     2  UNL2        0.1410
     23 C           8.3712    5.7835    0.0000 C.ar    2  UNL2        0.1621
     24 C           8.3795    4.6986    0.0000 C.ar    2  UNL2        0.1623
     25 C           0.4609    6.7542    0.0000 C.3     2  UNL2        0.2332
     26 C           9.2198    7.2934    0.0000 C.3     2  UNL2        0.0790
     27 C           9.2513    3.2019    0.0000 C.3     2  UNL2        0.0790
     28 H           5.6000    3.5650    0.0000 H       2  UNL2        0.1383
     29 H           6.1234    7.5642    0.0000 H       2  UNL2        0.0626
     30 H           2.9676    5.0996    0.0000 H       2  UNL2        0.0663
     31 H           4.7204    8.3742    0.0000 H       2  UNL2        0.0624
     32 H           2.9676    8.4089    0.0000 H       2  UNL2        0.0661
     33 H           7.4113    6.9314    0.0000 H       2  UNL2        0.0662
     34 H           7.4375    3.5361    0.0000 H       2  UNL2        0.0663
     35 H           3.5288    4.7633    0.0000 H       2  UNL2        0.0993
     36 H           3.2921    3.9190    0.0000 H       2  UNL2        0.0993
     37 H           4.1364    3.6823    0.0000 H       2  UNL2        0.0993
     38 H           0.0000    7.1690    0.0000 H       2  UNL2        0.1166
     39 H           0.0000    6.3395    0.0000 H       2  UNL2        0.1166
     40 H           9.8398    7.3006    0.0000 H       2  UNL2        0.0660
     41 H           9.2126    7.9134    0.0000 H       2  UNL2        0.0660
     42 H           8.5998    7.2863    0.0000 H       2  UNL2        0.0660
     43 H           8.6313    3.1995    0.0000 H       2  UNL2        0.0660
     44 H           9.2537    2.5819    0.0000 H       2  UNL2        0.0660
     45 H           9.8713    3.2043    0.0000 H       2  UNL2        0.0660
@<TRIPOS>UNITY_ATOM_ATTR
1 1
charge -1
6 1
charge 1
@<TRIPOS>BOND
     1     2    18    1
     2     2    25    1
     3     3    20    1
     4     3    25    1
     5     4    23    1
     6     4    26    1
     7     5    24    1
     8     5    27    1
     9     6     7   ar
    10     6    13   ar
    11     6    22    1
    12     7     8   ar
    13     7     9   ar
    14     8    10   ar
    15     8    14   ar
    16     9    11   ar
    17     9    15   ar
    18    10    12   ar
    19    10    19   ar
    20    11    16   ar
    21    11    17   ar
    22    12    13   ar
    23    12    21   ar
    24    13    28    1
    25    14    16   ar
    26    14    29    1
    27    15    18   ar
    28    15    30    1
    29    16    31    1
    30    17    20   ar
    31    17    32    1
    32    18    20   ar
    33    19    23   ar
    34    19    33    1
    35    21    24   ar
    36    21    34    1
    37    22    35    1
    38    22    36    1
    39    22    37    1
    40    23    24   ar
    41    25    38    1
    42    25    39    1
    43    26    40    1
    44    26    41    1
    45    26    42    1
    46    27    43    1
    47    27    44    1
    48    27    45    1
