@<TRIPOS>MOLECULE
IMPHY010078
 33 35 0 0 0
SMALL
GASTEIGER

@<TRIPOS>ATOM
      1 O           6.0682   -1.0223    0.0000 O.2     1  UNL1       -0.4544
      2 O           4.3198    2.0123    0.0000 O.3     1  UNL1       -0.4942
      3 O           6.0682    1.9777    0.0000 O.2     1  UNL1       -0.2869
      4 O           2.5381   -1.0464    0.0000 O.3     1  UNL1       -0.5065
      5 O          10.3984   -2.5223    0.0000 O.3     1  UNL1       -0.5068
      6 C           5.2022    0.4777    0.0000 C.ar    1  UNL1        0.1057
      7 C           5.2022   -0.5223    0.0000 C.ar    1  UNL1        0.1462
      8 C           6.9343   -0.5223    0.0000 C.ar    1  UNL1        0.1392
      9 C           4.3083    1.0124    0.0000 C.ar    1  UNL1        0.1379
     10 C           6.0682    0.9777    0.0000 C.ar    1  UNL1        0.1966
     11 C           7.8003   -1.0223    0.0000 C.ar    1  UNL1        0.0176
     12 C           6.9343    0.4777    0.0000 C.ar    1  UNL1        0.0288
     13 C           4.3083   -1.0570    0.0000 C.ar    1  UNL1        0.0231
     14 C           3.4022    0.4985    0.0000 C.ar    1  UNL1        0.0225
     15 C           3.4022   -0.5431    0.0000 C.ar    1  UNL1        0.1239
     16 C           7.8003   -2.0223    0.0000 C.ar    1  UNL1       -0.0476
     17 C           8.6663   -0.5223    0.0000 C.ar    1  UNL1       -0.0476
     18 C           8.6663   -2.5223    0.0000 C.ar    1  UNL1       -0.0195
     19 C           9.5323   -1.0223    0.0000 C.ar    1  UNL1       -0.0195
     20 C           9.5323   -2.0223    0.0000 C.ar    1  UNL1        0.1169
     21 C           3.4597    2.5223    0.0000 C.3     1  UNL1        0.0788
     22 H           7.4712    0.7877    0.0000 H       1  UNL1        0.0693
     23 H           4.3154   -1.6769    0.0000 H       1  UNL1        0.0691
     24 H           2.8665    0.8106    0.0000 H       1  UNL1        0.0691
     25 H           7.2634   -2.3323    0.0000 H       1  UNL1        0.0626
     26 H           8.6663    0.0977    0.0000 H       1  UNL1        0.0626
     27 H           8.6663   -3.1423    0.0000 H       1  UNL1        0.0654
     28 H          10.0693   -0.7123    0.0000 H       1  UNL1        0.0654
     29 H           3.7758    3.0556    0.0000 H       1  UNL1        0.0660
     30 H           2.9263    2.8385    0.0000 H       1  UNL1        0.0660
     31 H           3.1435    1.9890    0.0000 H       1  UNL1        0.0660
     32 H           2.0000   -0.7385    0.0000 H       1  UNL1        0.2921
     33 H          10.9353   -2.2123    0.0000 H       1  UNL1        0.2921
@<TRIPOS>BOND
     1     1     7   ar
     2     1     8   ar
     3     2     9    1
     4     2    21    1
     5     3    10    2
     6     4    15    1
     7     4    32    1
     8     5    20    1
     9     5    33    1
    10     6     7   ar
    11     6     9   ar
    12     6    10   ar
    13     7    13   ar
    14     8    11    1
    15     8    12   ar
    16     9    14   ar
    17    10    12   ar
    18    11    16   ar
    19    11    17   ar
    20    12    22    1
    21    13    15   ar
    22    13    23    1
    23    14    15   ar
    24    14    24    1
    25    16    18   ar
    26    16    25    1
    27    17    19   ar
    28    17    26    1
    29    18    20   ar
    30    18    27    1
    31    19    20   ar
    32    19    28    1
    33    21    29    1
    34    21    30    1
    35    21    31    1
