@<TRIPOS>MOLECULE
IMPHY014153
 39 41 0 0 0
SMALL
GASTEIGER

@<TRIPOS>ATOM
      1 O           4.6660   -1.0000    0.0000 O.2     1  UNL1       -0.4507
      2 O           6.4144    2.0346    0.0000 O.3     1  UNL1       -0.5055
      3 O           8.1962   -1.0241    0.0000 O.3     1  UNL1       -0.5062
      4 O           4.6660    2.0000    0.0000 O.2     1  UNL1       -0.2863
      5 O           2.9176   -2.0346    0.0000 O.3     1  UNL1       -0.5033
      6 C           5.5321    0.5000    0.0000 C.ar    1  UNL1        0.1063
      7 C           7.3321    0.5208    0.0000 C.ar    1  UNL1        0.0400
      8 C           5.5321   -0.5000    0.0000 C.ar    1  UNL1        0.1464
      9 C           6.4260    1.0347    0.0000 C.ar    1  UNL1        0.1381
     10 C           8.1962    1.0241    0.0000 C.3     1  UNL1       -0.0023
     11 C           3.8000    0.5000    0.0000 C.ar    1  UNL1        0.0683
     12 C           4.6660    1.0000    0.0000 C.ar    1  UNL1        0.2038
     13 C           7.3321   -0.5208    0.0000 C.ar    1  UNL1        0.1273
     14 C           3.8000   -0.5000    0.0000 C.ar    1  UNL1        0.1804
     15 C           6.4260   -1.0347    0.0000 C.ar    1  UNL1        0.0234
     16 C           9.0641    0.5275    0.0000 C.2     1  UNL1       -0.0807
     17 C           2.9061    1.0347    0.0000 C.ar    1  UNL1       -0.0471
     18 C           2.9061   -1.0347    0.0000 C.ar    1  UNL1        0.1598
     19 C           9.9282    1.0308    0.0000 C.2     1  UNL1       -0.0793
     20 C           2.0000    0.5208    0.0000 C.ar    1  UNL1       -0.0574
     21 C           2.0000   -0.5208    0.0000 C.ar    1  UNL1       -0.0165
     22 C          10.7961    0.5342    0.0000 C.3     1  UNL1       -0.0440
     23 C           9.9243    2.0308    0.0000 C.3     1  UNL1       -0.0440
     24 H           8.5929    1.5006    0.0000 H       1  UNL1        0.0358
     25 H           7.7958    1.4976    0.0000 H       1  UNL1        0.0358
     26 H           6.4188   -1.6546    0.0000 H       1  UNL1        0.0691
     27 H           9.0665   -0.0925    0.0000 H       1  UNL1        0.0575
     28 H           2.9132    1.6546    0.0000 H       1  UNL1        0.0626
     29 H           1.4643    0.8329    0.0000 H       1  UNL1        0.0619
     30 H           1.4643   -0.8329    0.0000 H       1  UNL1        0.0655
     31 H           6.9478    2.3508    0.0000 H       1  UNL1        0.2922
     32 H           8.1938   -1.6442    0.0000 H       1  UNL1        0.2921
     33 H          10.4882   -0.0040    0.0000 H       1  UNL1        0.0274
     34 H          11.3343    0.2262    0.0000 H       1  UNL1        0.0274
     35 H          11.1041    1.0723    0.0000 H       1  UNL1        0.0274
     36 H          10.5443    2.0332    0.0000 H       1  UNL1        0.0274
     37 H           9.9220    2.6508    0.0000 H       1  UNL1        0.0274
     38 H           9.3044    2.0284    0.0000 H       1  UNL1        0.0274
     39 H           2.3843   -2.3508    0.0000 H       1  UNL1        0.2923
@<TRIPOS>BOND
     1     1     8   ar
     2     1    14   ar
     3     2     9    1
     4     2    31    1
     5     3    13    1
     6     3    32    1
     7     4    12    2
     8     5    18    1
     9     5    39    1
    10     6     8   ar
    11     6     9   ar
    12     6    12   ar
    13     7     9   ar
    14     7    10    1
    15     7    13   ar
    16     8    15   ar
    17    10    16    1
    18    10    24    1
    19    10    25    1
    20    11    12   ar
    21    11    14   ar
    22    11    17   ar
    23    13    15   ar
    24    14    18   ar
    25    15    26    1
    26    16    19    2
    27    16    27    1
    28    17    20   ar
    29    17    28    1
    30    18    21   ar
    31    19    22    1
    32    19    23    1
    33    20    21   ar
    34    20    29    1
    35    21    30    1
    36    22    33    1
    37    22    34    1
    38    22    35    1
    39    23    36    1
    40    23    37    1
    41    23    38    1
