@<TRIPOS>MOLECULE
IMPHY003626
 50 54 0 0 0
SMALL
GASTEIGER

@<TRIPOS>ATOM
      1 O           8.0865    1.8336    0.0000 O.2     1  UNL1       -0.2753
      2 O           6.5824   -1.8133    0.0000 O.3     1  UNL1       -0.4672
      3 O           4.8506   -1.0832    0.0000 O.2     1  UNL1       -0.2497
      4 N           5.6708    1.5986    0.0000 N.am    1  UNL1       -0.2962
      5 N           5.0349   -1.5768    0.0000 N.ar    1  UNL1       -0.3568
      6 C           6.2943    0.8168    0.0000 C.3     1  UNL1        0.0500
      7 C           6.0718   -0.1582    0.0000 C.3     1  UNL1        0.1269
      8 C           7.2848    1.1391    0.0000 C.3     1  UNL1       -0.0205
      9 C           7.8221   -0.5790    0.0000 C.3     1  UNL1        0.0375
     10 C           6.8244   -0.8783    0.0000 C.3     1  UNL1       -0.0188
     11 C           8.0538    0.4365    0.0000 C.3     1  UNL1       -0.0373
     12 C           7.3751    1.1308    0.0000 C.2     1  UNL1        0.2190
     13 C           5.1708   -0.5920    0.0000 C.ar    1  UNL1        0.0391
     14 C           4.6708    1.5986    0.0000 C.3     1  UNL1        0.0191
     15 C           7.4961    2.1165    0.0000 C.3     1  UNL1       -0.0513
     16 C           4.2699   -0.1582    0.0000 C.ar    1  UNL1       -0.0165
     17 C           5.8493   -1.1331    0.0000 C.2     1  UNL1        0.3208
     18 C           4.0474    0.8168    0.0000 C.3     1  UNL1       -0.0095
     19 C           3.5848   -0.8785    0.0000 C.ar    1  UNL1        0.0032
     20 C           6.7552    2.7882    0.0000 C.3     1  UNL1       -0.0650
     21 C           4.0566   -1.7534    0.0000 C.ar    1  UNL1        0.0470
     22 C           2.5503   -0.8324    0.0000 C.ar    1  UNL1       -0.0523
     23 C           3.5267   -2.6430    0.0000 C.ar    1  UNL1       -0.0378
     24 C           6.3598   -2.7882    0.0000 C.3     1  UNL1        0.0817
     25 C           2.0000   -1.7095    0.0000 C.ar    1  UNL1       -0.0611
     26 C           2.4915   -2.6209    0.0000 C.ar    1  UNL1       -0.0598
     27 H           6.4835    1.6455    0.0000 H       1  UNL1        0.0518
     28 H           6.8247    1.5546    0.0000 H       1  UNL1        0.0319
     29 H           8.0371   -1.4014    0.0000 H       1  UNL1        0.0395
     30 H           6.3254   -1.2463    0.0000 H       1  UNL1        0.0287
     31 H           7.1015   -1.4329    0.0000 H       1  UNL1        0.0287
     32 H           8.6258    0.1972    0.0000 H       1  UNL1        0.0276
     33 H           8.3875    0.9591    0.0000 H       1  UNL1        0.0276
     34 H           4.8088    2.2030    0.0000 H       1  UNL1        0.0468
     35 H           4.1123    1.8676    0.0000 H       1  UNL1        0.0468
     36 H           8.0701    1.8823    0.0000 H       1  UNL1        0.0266
     37 H           7.8264    2.6412    0.0000 H       1  UNL1        0.0266
     38 H           3.6608    1.3015    0.0000 H       1  UNL1        0.0329
     39 H           3.4888    0.5478    0.0000 H       1  UNL1        0.0329
     40 H           5.4822   -2.0060    0.0000 H       1  UNL1        0.1656
     41 H           7.1716    3.2475    0.0000 H       1  UNL1        0.0230
     42 H           6.2959    3.2046    0.0000 H       1  UNL1        0.0230
     43 H           6.3388    2.3288    0.0000 H       1  UNL1        0.0230
     44 H           2.2624   -0.2833    0.0000 H       1  UNL1        0.0624
     45 H           3.8272   -3.1853    0.0000 H       1  UNL1        0.0638
     46 H           5.7554   -2.6502    0.0000 H       1  UNL1        0.0661
     47 H           6.2219   -3.3926    0.0000 H       1  UNL1        0.0661
     48 H           6.9643   -2.9261    0.0000 H       1  UNL1        0.0661
     49 H           1.3803   -1.6891    0.0000 H       1  UNL1        0.0618
     50 H           2.1680   -3.1499    0.0000 H       1  UNL1        0.0618
@<TRIPOS>BOND
     1     1    12    2
     2     2    17    1
     3     2    24    1
     4     3    17    2
     5     4     6    1
     6     4    12   am
     7     4    14    1
     8     5    13   ar
     9     5    21   ar
    10     5    40    1
    11     6     7    1
    12     6     8    1
    13     6    27    1
    14     7    10    1
    15     7    13    1
    16     7    17    1
    17     8    11    1
    18     8    15    1
    19     8    28    1
    20     9    10    1
    21     9    11    1
    22     9    12    1
    23     9    29    1
    24    10    30    1
    25    10    31    1
    26    11    32    1
    27    11    33    1
    28    13    16   ar
    29    14    18    1
    30    14    34    1
    31    14    35    1
    32    15    20    1
    33    15    36    1
    34    15    37    1
    35    16    18    1
    36    16    19   ar
    37    18    38    1
    38    18    39    1
    39    19    21   ar
    40    19    22   ar
    41    20    41    1
    42    20    42    1
    43    20    43    1
    44    21    23   ar
    45    22    25   ar
    46    22    44    1
    47    23    26   ar
    48    23    45    1
    49    24    46    1
    50    24    47    1
    51    24    48    1
    52    25    26   ar
    53    25    49    1
    54    26    50    1
