@<TRIPOS>MOLECULE
IMPHY015429
 24 26 0 0 0
SMALL
GASTEIGER

@<TRIPOS>ATOM
      1 O           4.6660    1.8246    0.0000 O.2     1  UNL1       -0.2849
      2 O           4.6660   -2.1754    0.0000 O.2     1  UNL1       -0.2849
      3 N           2.9061    0.8593    0.0000 N.ar    1  UNL1       -0.2479
      4 N           2.9061   -1.2100    0.0000 N.ar    1  UNL1       -0.2479
      5 N           6.4144    1.8592    0.0000 N.pl3   1  UNL1       -0.3574
      6 C           5.5321    0.3246    0.0000 C.ar    1  UNL1        0.0553
      7 C           5.5321   -0.6754    0.0000 C.ar    1  UNL1        0.0365
      8 C           4.6660    0.8246    0.0000 C.2     1  UNL1        0.2158
      9 C           3.8000    0.3246    0.0000 C.ar    1  UNL1        0.1401
     10 C           3.8000   -0.6754    0.0000 C.ar    1  UNL1        0.1400
     11 C           4.6660   -1.1754    0.0000 C.2     1  UNL1        0.2141
     12 C           6.4260    0.8593    0.0000 C.ar    1  UNL1        0.0362
     13 C           6.4260   -1.2100    0.0000 C.ar    1  UNL1       -0.0501
     14 C           7.3321    0.3454    0.0000 C.ar    1  UNL1       -0.0403
     15 C           7.3321   -0.6962    0.0000 C.ar    1  UNL1       -0.0593
     16 C           2.0000    0.3454    0.0000 C.ar    1  UNL1        0.0465
     17 C           2.0000   -0.6962    0.0000 C.ar    1  UNL1        0.0465
     18 H           6.4188   -1.8300    0.0000 H       1  UNL1        0.0625
     19 H           7.8678    0.6575    0.0000 H       1  UNL1        0.0636
     20 H           7.8678   -1.0083    0.0000 H       1  UNL1        0.0618
     21 H           6.9478    2.1754    0.0000 H       1  UNL1        0.1423
     22 H           5.8740    2.1630    0.0000 H       1  UNL1        0.1423
     23 H           1.4643    0.6575    0.0000 H       1  UNL1        0.0845
     24 H           1.4643   -1.0083    0.0000 H       1  UNL1        0.0845
@<TRIPOS>BOND
     1     1     8    2
     2     2    11    2
     3     3     9   ar
     4     3    16   ar
     5     4    10   ar
     6     4    17   ar
     7     5    12    1
     8     5    21    1
     9     5    22    1
    10     6     7   ar
    11     6     8    1
    12     6    12   ar
    13     7    11    1
    14     7    13   ar
    15     8     9    1
    16     9    10   ar
    17    10    11    1
    18    12    14   ar
    19    13    15   ar
    20    13    18    1
    21    14    15   ar
    22    14    19    1
    23    15    20    1
    24    16    17   ar
    25    16    23    1
    26    17    24    1
