@<TRIPOS>MOLECULE
IMPHY016092
 38 37 0 0 0
SMALL
GASTEIGER

@<TRIPOS>ATOM
      1 C           5.4641   -0.2500    0.0000 C.3     1  UNL1       -0.0413
      2 C           6.3301    0.2500    0.0000 C.3     1  UNL1       -0.0413
      3 C           4.5981    0.2500    0.0000 C.3     1  UNL1       -0.0502
      4 C           7.1962   -0.2500    0.0000 C.3     1  UNL1       -0.0502
      5 C           5.4641   -1.2500    0.0000 C.3     1  UNL1       -0.0622
      6 C           6.3301    1.2500    0.0000 C.3     1  UNL1       -0.0622
      7 C           3.7320   -0.2500    0.0000 C.3     1  UNL1       -0.0531
      8 C           8.0622    0.2500    0.0000 C.3     1  UNL1       -0.0531
      9 C           2.8660    0.2500    0.0000 C.3     1  UNL1       -0.0559
     10 C           8.9282   -0.2500    0.0000 C.3     1  UNL1       -0.0559
     11 C           2.0000   -0.2500    0.0000 C.3     1  UNL1       -0.0653
     12 C           9.7942    0.2500    0.0000 C.3     1  UNL1       -0.0653
     13 H           6.0010   -0.5600    0.0000 H       1  UNL1        0.0301
     14 H           6.8671    0.5600    0.0000 H       1  UNL1        0.0301
     15 H           4.9966    0.7249    0.0000 H       1  UNL1        0.0268
     16 H           4.1996    0.7249    0.0000 H       1  UNL1        0.0268
     17 H           6.7976   -0.7249    0.0000 H       1  UNL1        0.0268
     18 H           7.5947   -0.7249    0.0000 H       1  UNL1        0.0268
     19 H           3.3335   -0.7249    0.0000 H       1  UNL1        0.0265
     20 H           4.1306   -0.7249    0.0000 H       1  UNL1        0.0265
     21 H           8.4607    0.7249    0.0000 H       1  UNL1        0.0265
     22 H           7.6636    0.7249    0.0000 H       1  UNL1        0.0265
     23 H           4.8441   -1.2500    0.0000 H       1  UNL1        0.0233
     24 H           5.4641   -1.8700    0.0000 H       1  UNL1        0.0233
     25 H           6.0841   -1.2500    0.0000 H       1  UNL1        0.0233
     26 H           6.9501    1.2500    0.0000 H       1  UNL1        0.0233
     27 H           6.3301    1.8700    0.0000 H       1  UNL1        0.0233
     28 H           5.7101    1.2500    0.0000 H       1  UNL1        0.0233
     29 H           3.2646    0.7249    0.0000 H       1  UNL1        0.0263
     30 H           2.4675    0.7249    0.0000 H       1  UNL1        0.0263
     31 H           8.5297   -0.7249    0.0000 H       1  UNL1        0.0263
     32 H           9.3267   -0.7249    0.0000 H       1  UNL1        0.0263
     33 H           1.6900    0.2869    0.0000 H       1  UNL1        0.0230
     34 H           1.4631   -0.5600    0.0000 H       1  UNL1        0.0230
     35 H           2.3100   -0.7869    0.0000 H       1  UNL1        0.0230
     36 H          10.1042   -0.2869    0.0000 H       1  UNL1        0.0230
     37 H          10.3312    0.5600    0.0000 H       1  UNL1        0.0230
     38 H           9.4842    0.7869    0.0000 H       1  UNL1        0.0230
@<TRIPOS>BOND
     1     1     2    1
     2     1     3    1
     3     1     5    1
     4     1    13    1
     5     2     4    1
     6     2     6    1
     7     2    14    1
     8     3     7    1
     9     3    15    1
    10     3    16    1
    11     4     8    1
    12     4    17    1
    13     4    18    1
    14     5    23    1
    15     5    24    1
    16     5    25    1
    17     6    26    1
    18     6    27    1
    19     6    28    1
    20     7     9    1
    21     7    19    1
    22     7    20    1
    23     8    10    1
    24     8    21    1
    25     8    22    1
    26     9    11    1
    27     9    29    1
    28     9    30    1
    29    10    12    1
    30    10    31    1
    31    10    32    1
    32    11    33    1
    33    11    34    1
    34    11    35    1
    35    12    36    1
    36    12    37    1
    37    12    38    1
