@<TRIPOS>MOLECULE
IMPHY007826
 34 36 0 0 0
SMALL
GASTEIGER

@<TRIPOS>ATOM
      1 O           3.7230   -0.2190    0.0000 O.3     1  UNL1       -0.4568
      2 O           7.0268   -2.2076    0.0000 O.2     1  UNL1       -0.2924
      3 O           2.0000    0.2131    0.0000 O.2     1  UNL1       -0.2453
      4 C           5.4786   -0.1453    0.0000 C.3     1  UNL1        0.0314
      5 C           6.3796    0.2886    0.0000 C.3     1  UNL1       -0.0029
      6 C           4.5777    0.2886    0.0000 C.3     1  UNL1        0.1177
      7 C           4.3551    1.2635    0.0000 C.3     1  UNL1        0.0283
      8 C           4.9786    2.0454    0.0000 C.3     1  UNL1       -0.0389
      9 C           7.0647   -0.4317    0.0000 C.3     1  UNL1        0.0173
     10 C           6.6021    1.2635    0.0000 C.2     1  UNL1       -0.0724
     11 C           5.6146   -1.1300    0.0000 C.2     1  UNL1       -0.0049
     12 C           5.9786    2.0454    0.0000 C.3     1  UNL1       -0.0310
     13 C           3.3648    1.3501    0.0000 C.2     1  UNL1        0.0361
     14 C           6.5929   -1.3067    0.0000 C.2     1  UNL1        0.1597
     15 C           2.9749    0.4357    0.0000 C.2     1  UNL1        0.3353
     16 C           7.5770    1.4861    0.0000 C.2     1  UNL1       -0.0992
     17 C           4.8930   -1.8223    0.0000 C.2     1  UNL1       -0.0918
     18 C           2.8504    2.2076    0.0000 C.2     1  UNL1       -0.0883
     19 H           4.7916   -0.6458    0.0000 H       1  UNL1        0.0392
     20 H           7.1993    0.5137    0.0000 H       1  UNL1        0.0357
     21 H           4.6147   -0.5606    0.0000 H       1  UNL1        0.0746
     22 H           4.0200    2.0447    0.0000 H       1  UNL1        0.0387
     23 H           5.1166    2.6498    0.0000 H       1  UNL1        0.0275
     24 H           4.4200    2.3144    0.0000 H       1  UNL1        0.0275
     25 H           7.5765   -0.7817    0.0000 H       1  UNL1        0.0351
     26 H           7.4666    0.0405    0.0000 H       1  UNL1        0.0351
     27 H           6.5372    2.3144    0.0000 H       1  UNL1        0.0310
     28 H           5.8407    2.6498    0.0000 H       1  UNL1        0.0310
     29 H           7.9988    1.0316    0.0000 H       1  UNL1        0.0534
     30 H           7.7598    2.0785    0.0000 H       1  UNL1        0.0534
     31 H           4.2976   -1.6495    0.0000 H       1  UNL1        0.0539
     32 H           5.0411   -2.4244    0.0000 H       1  UNL1        0.0539
     33 H           3.1514    2.7497    0.0000 H       1  UNL1        0.0540
     34 H           2.2305    2.1973    0.0000 H       1  UNL1        0.0540
@<TRIPOS>BOND
     1     1     6    1
     2     1    15    1
     3     2    14    2
     4     3    15    2
     5     4     5    1
     6     4     6    1
     7     4    11    1
     8     4    19    1
     9     5     9    1
    10     5    10    1
    11     5    20    1
    12     6     7    1
    13     6    21    1
    14     7     8    1
    15     7    13    1
    16     7    22    1
    17     8    12    1
    18     8    23    1
    19     8    24    1
    20     9    14    1
    21     9    25    1
    22     9    26    1
    23    10    12    1
    24    10    16    2
    25    11    14    1
    26    11    17    2
    27    12    27    1
    28    12    28    1
    29    13    15    1
    30    13    18    2
    31    16    29    1
    32    16    30    1
    33    17    31    1
    34    17    32    1
    35    18    33    1
    36    18    34    1
