@<TRIPOS>MOLECULE
IMPHY004675
 35 35 0 0 0
SMALL
GASTEIGER

@<TRIPOS>ATOM
      1 O           7.6751   -1.3157    0.0000 O.3     1  UNL1       -0.3915
      2 O           2.4608   -1.6759    0.0000 O.3     1  UNL1       -0.4806
      3 O           3.6197   -2.9630    0.0000 O.2     1  UNL1       -0.2510
      4 C           5.9150   -1.0370    0.0000 C.3     1  UNL1       -0.0082
      5 C           5.1060   -1.6248    0.0000 C.3     1  UNL1       -0.0255
      6 C           6.7240   -1.6248    0.0000 C.3     1  UNL1        0.0586
      7 C           5.4150   -2.5758    0.0000 C.3     1  UNL1       -0.0470
      8 C           6.4150   -2.5758    0.0000 C.3     1  UNL1       -0.0263
      9 C           5.9150   -0.0370    0.0000 C.3     1  UNL1       -0.0293
     10 C           4.1550   -1.3157    0.0000 C.3     1  UNL1        0.0479
     11 C           6.7810    0.4630    0.0000 C.2     1  UNL1       -0.0876
     12 C           3.4118   -1.9849    0.0000 C.2     1  UNL1        0.3050
     13 C           6.7810    1.4630    0.0000 C.2     1  UNL1       -0.0882
     14 C           5.9150    1.9630    0.0000 C.3     1  UNL1       -0.0376
     15 C           5.9150    2.9630    0.0000 C.3     1  UNL1       -0.0618
     16 H           6.4675   -0.7555    0.0000 H       1  UNL1        0.0331
     17 H           4.6676   -2.0632    0.0000 H       1  UNL1        0.0309
     18 H           7.1624   -2.0632    0.0000 H       1  UNL1        0.0596
     19 H           4.8086   -2.7047    0.0000 H       1  UNL1        0.0269
     20 H           5.4798   -3.1924    0.0000 H       1  UNL1        0.0269
     21 H           6.3502   -3.1924    0.0000 H       1  UNL1        0.0290
     22 H           7.0215   -2.7047    0.0000 H       1  UNL1        0.0290
     23 H           5.7030    0.5456    0.0000 H       1  UNL1        0.0311
     24 H           5.3044   -0.1446    0.0000 H       1  UNL1        0.0311
     25 H           4.4460   -0.7683    0.0000 H       1  UNL1        0.0380
     26 H           3.6664   -0.9340    0.0000 H       1  UNL1        0.0380
     27 H           8.1358   -1.7306    0.0000 H       1  UNL1        0.2098
     28 H           7.3180    0.1530    0.0000 H       1  UNL1        0.0569
     29 H           7.3180    1.7730    0.0000 H       1  UNL1        0.0569
     30 H           5.3044    2.0707    0.0000 H       1  UNL1        0.0305
     31 H           5.7030    1.3804    0.0000 H       1  UNL1        0.0305
     32 H           2.0000   -2.0907    0.0000 H       1  UNL1        0.2951
     33 H           6.5350    2.9630    0.0000 H       1  UNL1        0.0233
     34 H           5.9150    3.5830    0.0000 H       1  UNL1        0.0233
     35 H           5.2950    2.9630    0.0000 H       1  UNL1        0.0233
@<TRIPOS>BOND
     1     6     1    1
     2     1    27    1
     3     2    12    1
     4     2    32    1
     5     3    12    2
     6     4     5    1
     7     4     6    1
     8     4     9    1
     9     4    16    1
    10     5     7    1
    11     5    10    1
    12     5    17    1
    13     6     8    1
    14     6    18    1
    15     7     8    1
    16     7    19    1
    17     7    20    1
    18     8    21    1
    19     8    22    1
    20     9    11    1
    21     9    23    1
    22     9    24    1
    23    10    12    1
    24    10    25    1
    25    10    26    1
    26    11    13    2
    27    11    28    1
    28    13    14    1
    29    13    29    1
    30    14    15    1
    31    14    30    1
    32    14    31    1
    33    15    33    1
    34    15    34    1
    35    15    35    1
