@<TRIPOS>MOLECULE
IMPHY002102
 41 42 0 0 0
SMALL
GASTEIGER

@<TRIPOS>ATOM
      1 O           2.0000   -2.3102    0.0000 O.3     1  UNL1       -0.3650
      2 O           5.4644    1.6902    0.0000 O.2     1  UNL1       -0.2924
      3 C           2.8663   -1.8098    0.0000 C.3     1  UNL1        0.0932
      4 C           2.0003   -1.3098    0.0000 C.3     1  UNL1        0.0884
      5 C           3.7323   -1.3098    0.0000 C.3     1  UNL1       -0.0209
      6 C           2.0003   -0.3098    0.0000 C.3     1  UNL1       -0.0202
      7 C           3.7323   -0.3098    0.0000 C.3     1  UNL1       -0.0403
      8 C           3.7323   -2.3098    0.0000 C.3     1  UNL1       -0.0334
      9 C           4.5983    0.1902    0.0000 C.3     1  UNL1        0.0239
     10 C           2.8663    0.1902    0.0000 C.3     1  UNL1       -0.0292
     11 C           5.4644   -0.3098    0.0000 C.3     1  UNL1       -0.0369
     12 C           4.5983    1.1902    0.0000 C.2     1  UNL1        0.1593
     13 C           2.8663    1.1902    0.0000 C.2     1  UNL1       -0.0692
     14 C           3.7323    1.6902    0.0000 C.2     1  UNL1       -0.0199
     15 C           6.3304    0.1902    0.0000 C.3     1  UNL1       -0.0620
     16 C           5.4644   -1.3098    0.0000 C.3     1  UNL1       -0.0620
     17 C           2.0003    1.6902    0.0000 C.3     1  UNL1       -0.0434
     18 H           1.3803   -1.3097    0.0000 H       1  UNL1        0.0625
     19 H           3.9444   -1.8924    0.0000 H       1  UNL1        0.0294
     20 H           4.3429   -1.2021    0.0000 H       1  UNL1        0.0294
     21 H           1.7882    0.2728    0.0000 H       1  UNL1        0.0294
     22 H           1.3897   -0.4174    0.0000 H       1  UNL1        0.0294
     23 H           3.5202    0.2728    0.0000 H       1  UNL1        0.0273
     24 H           3.1217   -0.4174    0.0000 H       1  UNL1        0.0273
     25 H           3.4223   -2.8467    0.0000 H       1  UNL1        0.0258
     26 H           4.2692   -2.6198    0.0000 H       1  UNL1        0.0258
     27 H           4.0423   -1.7728    0.0000 H       1  UNL1        0.0258
     28 H           5.1353    0.5002    0.0000 H       1  UNL1        0.0383
     29 H           3.0783   -0.3924    0.0000 H       1  UNL1        0.0311
     30 H           3.4769    0.2979    0.0000 H       1  UNL1        0.0311
     31 H           6.0013   -0.6198    0.0000 H       1  UNL1        0.0302
     32 H           3.7323    2.3102    0.0000 H       1  UNL1        0.0652
     33 H           6.6404   -0.3467    0.0000 H       1  UNL1        0.0233
     34 H           6.8673    0.5002    0.0000 H       1  UNL1        0.0233
     35 H           6.0204    0.7272    0.0000 H       1  UNL1        0.0233
     36 H           4.8444   -1.3098    0.0000 H       1  UNL1        0.0233
     37 H           5.4644   -1.9298    0.0000 H       1  UNL1        0.0233
     38 H           6.0844   -1.3098    0.0000 H       1  UNL1        0.0233
     39 H           2.3103    2.2272    0.0000 H       1  UNL1        0.0274
     40 H           1.4633    2.0002    0.0000 H       1  UNL1        0.0274
     41 H           1.6903    1.1533    0.0000 H       1  UNL1        0.0274
@<TRIPOS>BOND
     1     1     3    1
     2     1     4    1
     3     2    12    2
     4     3     4    1
     5     3     5    1
     6     3     8    1
     7     4     6    1
     8     4    18    1
     9     5     7    1
    10     5    19    1
    11     5    20    1
    12     6    10    1
    13     6    21    1
    14     6    22    1
    15     7     9    1
    16     7    23    1
    17     7    24    1
    18     8    25    1
    19     8    26    1
    20     8    27    1
    21     9    11    1
    22     9    12    1
    23     9    28    1
    24    10    13    1
    25    10    29    1
    26    10    30    1
    27    11    15    1
    28    11    16    1
    29    11    31    1
    30    12    14    1
    31    13    14    2
    32    13    17    1
    33    14    32    1
    34    15    33    1
    35    15    34    1
    36    15    35    1
    37    16    36    1
    38    16    37    1
    39    16    38    1
    40    17    39    1
    41    17    40    1
    42    17    41    1
