@<TRIPOS>MOLECULE
IMPHY008945
 32 34 0 0 0
SMALL
GASTEIGER

@<TRIPOS>ATOM
      1 O           6.0682   -0.2704    0.0000 O.2     1  UNL1       -0.1997
      2 O           7.8003    1.7296    0.0000 O.3     1  UNL1       -0.4995
      3 O           4.3198    2.7642    0.0000 O.3     1  UNL1       -0.5057
      4 O           2.5381   -0.2945    0.0000 O.3     1  UNL1       -0.5063
      5 O           8.6663   -2.7704    0.0000 O.3     1  UNL1       -0.5033
      6 O          10.3984   -1.7704    0.0000 O.3     1  UNL1       -0.5033
      7 C           5.2022    1.2296    0.0000 C.ar    1  UNL1        0.1241
      8 C           6.9343    0.2296    0.0000 C.ar    1  UNL1        0.4043
      9 C           5.2022    0.2296    0.0000 C.ar    1  UNL1        0.3708
     10 C           7.8003   -0.2704    0.0000 C.ar    1  UNL1        0.0865
     11 C           6.9343    1.2296    0.0000 C.ar    1  UNL1        0.2238
     12 C           6.0682    1.7296    0.0000 C.ar    1  UNL1        0.0090
     13 C           4.3083    1.7643    0.0000 C.ar    1  UNL1        0.1366
     14 C           4.3083   -0.3051    0.0000 C.ar    1  UNL1        0.0847
     15 C           7.8003   -1.2704    0.0000 C.ar    1  UNL1       -0.0003
     16 C           3.4022    0.2088    0.0000 C.ar    1  UNL1        0.1293
     17 C           8.6663    0.2296    0.0000 C.ar    1  UNL1       -0.0418
     18 C           3.4022    1.2504    0.0000 C.ar    1  UNL1        0.0225
     19 C           8.6663   -1.7704    0.0000 C.ar    1  UNL1        0.1591
     20 C           9.5323   -0.2704    0.0000 C.ar    1  UNL1       -0.0157
     21 C           9.5323   -1.2704    0.0000 C.ar    1  UNL1        0.1583
     22 H           6.0682    2.3496    0.0000 H       1  UNL1        0.0667
     23 H           4.3154   -0.9250    0.0000 H       1  UNL1        0.0749
     24 H           7.2634   -1.5804    0.0000 H       1  UNL1        0.0664
     25 H           8.6663    0.8496    0.0000 H       1  UNL1        0.0628
     26 H           2.8665    1.5625    0.0000 H       1  UNL1        0.0691
     27 H          10.0693    0.0396    0.0000 H       1  UNL1        0.0655
     28 H           7.8003    2.3496    0.0000 H       1  UNL1        0.2925
     29 H           3.7865    3.0804    0.0000 H       1  UNL1        0.2922
     30 H           2.0000    0.0134    0.0000 H       1  UNL1        0.2921
     31 H           8.1294   -3.0804    0.0000 H       1  UNL1        0.2923
     32 H          10.9353   -1.4604    0.0000 H       1  UNL1        0.2923
@<TRIPOS>UNITY_ATOM_ATTR
1 1
charge 1
@<TRIPOS>BOND
     1     1     8   ar
     2     1     9   ar
     3     2    11    1
     4     2    28    1
     5     3    13    1
     6     3    29    1
     7     4    16    1
     8     4    30    1
     9     5    19    1
    10     5    31    1
    11     6    21    1
    12     6    32    1
    13     7     9   ar
    14     7    12   ar
    15     7    13   ar
    16     8    10    1
    17     8    11   ar
    18     9    14   ar
    19    10    15   ar
    20    10    17   ar
    21    11    12   ar
    22    12    22    1
    23    13    18   ar
    24    14    16   ar
    25    14    23    1
    26    15    19   ar
    27    15    24    1
    28    16    18   ar
    29    17    20   ar
    30    17    25    1
    31    18    26    1
    32    19    21   ar
    33    20    21   ar
    34    20    27    1
