@<TRIPOS>MOLECULE
IMPHY008426
 43 46 0 0 0
SMALL
GASTEIGER

@<TRIPOS>ATOM
      1 O           3.3235   -1.9257    0.0000 O.3     1  UNL1       -0.3743
      2 O           6.3446   -0.1694    0.0000 O.3     1  UNL1       -0.4799
      3 O           5.3308    0.9793    0.0000 O.2     1  UNL1       -0.2499
      4 N           7.3141   -2.4465    0.0000 N.3     1  UNL1       -0.3123
      5 N           3.1971    0.0915    0.0000 N.ar    1  UNL1       -0.3570
      6 C           5.5141   -1.4257    0.0000 C.3     1  UNL1        0.0059
      7 C           4.7323   -0.8022    0.0000 C.3     1  UNL1        0.1367
      8 C           6.4080   -0.8910    0.0000 C.3     1  UNL1       -0.0324
      9 C           5.5141   -2.4257    0.0000 C.2     1  UNL1       -0.0530
     10 C           3.7574   -1.0247    0.0000 C.3     1  UNL1        0.0698
     11 C           4.1897    0.0378    0.0000 C.ar    1  UNL1        0.0368
     12 C           7.3141   -1.4049    0.0000 C.3     1  UNL1       -0.0032
     13 C           6.4080   -2.9603    0.0000 C.3     1  UNL1        0.0176
     14 C           5.3558   -0.0204    0.0000 C.2     1  UNL1        0.3196
     15 C           4.7323   -3.0492    0.0000 C.2     1  UNL1       -0.0579
     16 C           3.7574   -2.8266    0.0000 C.3     1  UNL1        0.0662
     17 C           4.5491    0.9647    0.0000 C.ar    1  UNL1       -0.0322
     18 C           2.9397    1.0517    0.0000 C.ar    1  UNL1        0.0467
     19 C           3.7797    1.5942    0.0000 C.ar    1  UNL1       -0.0001
     20 C           2.0498    1.5079    0.0000 C.ar    1  UNL1       -0.0378
     21 C           3.7299    2.5930    0.0000 C.ar    1  UNL1       -0.0526
     22 C           2.0000    2.5066    0.0000 C.ar    1  UNL1       -0.0598
     23 C           2.8400    3.0492    0.0000 C.ar    1  UNL1       -0.0611
     24 H           5.5711   -0.5776    0.0000 H       1  UNL1        0.0362
     25 H           6.8017   -0.4120    0.0000 H       1  UNL1        0.0284
     26 H           6.0035   -0.4212    0.0000 H       1  UNL1        0.0284
     27 H           3.7574   -0.4047    0.0000 H       1  UNL1        0.0575
     28 H           3.1529   -0.8868    0.0000 H       1  UNL1        0.0575
     29 H           7.9250   -1.5110    0.0000 H       1  UNL1        0.0424
     30 H           7.5232   -0.8212    0.0000 H       1  UNL1        0.0424
     31 H           6.0035   -3.4301    0.0000 H       1  UNL1        0.0470
     32 H           6.8017   -3.4394    0.0000 H       1  UNL1        0.0470
     33 H           7.8499   -2.7586    0.0000 H       1  UNL1        0.1222
     34 H           4.8702   -3.6536    0.0000 H       1  UNL1        0.0595
     35 H           3.1529   -2.9646    0.0000 H       1  UNL1        0.0604
     36 H           3.7574   -3.4466    0.0000 H       1  UNL1        0.0604
     37 H           2.8066   -0.3901    0.0000 H       1  UNL1        0.1656
     38 H           5.1486    1.1226    0.0000 H       1  UNL1        0.0642
     39 H           6.7312    0.3153    0.0000 H       1  UNL1        0.2951
     40 H           1.5290    1.1715    0.0000 H       1  UNL1        0.0638
     41 H           4.2507    2.9293    0.0000 H       1  UNL1        0.0624
     42 H           1.4483    2.7895    0.0000 H       1  UNL1        0.0618
     43 H           2.8091    3.6684    0.0000 H       1  UNL1        0.0618
@<TRIPOS>BOND
     1     1    10    1
     2     1    16    1
     3     2    14    1
     4     2    39    1
     5     3    14    2
     6     4    12    1
     7     4    13    1
     8     4    33    1
     9     5    11   ar
    10     5    18   ar
    11     5    37    1
    12     6     7    1
    13     6     8    1
    14     6     9    1
    15     6    24    1
    16     7    10    1
    17     7    11    1
    18     7    14    1
    19     8    12    1
    20     8    25    1
    21     8    26    1
    22     9    13    1
    23     9    15    2
    24    10    27    1
    25    10    28    1
    26    11    17   ar
    27    12    29    1
    28    12    30    1
    29    13    31    1
    30    13    32    1
    31    15    16    1
    32    15    34    1
    33    16    35    1
    34    16    36    1
    35    17    19   ar
    36    17    38    1
    37    18    19   ar
    38    18    20   ar
    39    19    21   ar
    40    20    22   ar
    41    20    40    1
    42    21    23   ar
    43    21    41    1
    44    22    23   ar
    45    22    42    1
    46    23    43    1
