@<TRIPOS>MOLECULE
IMPHY017163
 33 33 0 0 0
SMALL
GASTEIGER

@<TRIPOS>ATOM
      1 O           5.4641   -0.2500    0.0000 O.2     1  UNL1       -0.2960
      2 C           4.5981    1.2500    0.0000 C.3     1  UNL1       -0.0490
      3 C           4.5981    2.2500    0.0000 C.3     1  UNL1       -0.0530
      4 C           3.7320    0.7500    0.0000 C.3     1  UNL1       -0.0246
      5 C           5.4641    2.7500    0.0000 C.3     1  UNL1       -0.0559
      6 C           3.7320   -0.2500    0.0000 C.2     1  UNL1       -0.0076
      7 C           5.4641    3.7500    0.0000 C.3     1  UNL1       -0.0653
      8 C           2.8660   -0.7500    0.0000 C.2     1  UNL1       -0.0484
      9 C           2.8660   -1.7500    0.0000 C.ar    1  UNL1       -0.0247
     10 C           4.5981   -0.7500    0.0000 C.2     1  UNL1        0.1463
     11 C           2.0000   -2.2500    0.0000 C.ar    1  UNL1       -0.0546
     12 C           3.7320   -2.2500    0.0000 C.ar    1  UNL1       -0.0546
     13 C           2.0000   -3.2500    0.0000 C.ar    1  UNL1       -0.0612
     14 C           3.7320   -3.2500    0.0000 C.ar    1  UNL1       -0.0612
     15 C           2.8660   -3.7500    0.0000 C.ar    1  UNL1       -0.0617
     16 H           4.8101    0.6674    0.0000 H       1  UNL1        0.0268
     17 H           5.2087    1.3577    0.0000 H       1  UNL1        0.0268
     18 H           4.3860    2.8326    0.0000 H       1  UNL1        0.0265
     19 H           3.9875    2.1423    0.0000 H       1  UNL1        0.0265
     20 H           3.5200    1.3326    0.0000 H       1  UNL1        0.0314
     21 H           3.1215    0.6423    0.0000 H       1  UNL1        0.0314
     22 H           5.6762    2.1674    0.0000 H       1  UNL1        0.0263
     23 H           6.0747    2.8577    0.0000 H       1  UNL1        0.0263
     24 H           6.0841    3.7500    0.0000 H       1  UNL1        0.0230
     25 H           5.4641    4.3700    0.0000 H       1  UNL1        0.0230
     26 H           4.8441    3.7500    0.0000 H       1  UNL1        0.0230
     27 H           2.3291   -0.4400    0.0000 H       1  UNL1        0.0627
     28 H           4.5981   -1.3700    0.0000 H       1  UNL1        0.1078
     29 H           1.4631   -1.9400    0.0000 H       1  UNL1        0.0623
     30 H           4.2690   -1.9400    0.0000 H       1  UNL1        0.0623
     31 H           1.4631   -3.5600    0.0000 H       1  UNL1        0.0618
     32 H           4.2690   -3.5600    0.0000 H       1  UNL1        0.0618
     33 H           2.8660   -4.3700    0.0000 H       1  UNL1        0.0618
@<TRIPOS>BOND
     1     1    10    2
     2     2     3    1
     3     2     4    1
     4     2    16    1
     5     2    17    1
     6     3     5    1
     7     3    18    1
     8     3    19    1
     9     4     6    1
    10     4    20    1
    11     4    21    1
    12     5     7    1
    13     5    22    1
    14     5    23    1
    15     6     8    2
    16     6    10    1
    17     7    24    1
    18     7    25    1
    19     7    26    1
    20     8     9    1
    21     8    27    1
    22     9    11   ar
    23     9    12   ar
    24    10    28    1
    25    11    13   ar
    26    11    29    1
    27    12    14   ar
    28    12    30    1
    29    13    15   ar
    30    13    31    1
    31    14    15   ar
    32    14    32    1
    33    15    33    1
