@<TRIPOS>MOLECULE
IMPHY005646
 62 66 0 0 0
SMALL
GASTEIGER

@<TRIPOS>ATOM
      1 O           7.3494    0.9405    0.0000 O.3     1  UNL1       -0.3585
      2 O           7.9771   -1.9063    0.0000 O.3     1  UNL1       -0.4581
      3 O           5.3307    1.6441    0.0000 O.3     1  UNL1       -0.3888
      4 O           7.0628    2.6441    0.0000 O.3     1  UNL1       -0.3858
      5 O           9.6906    0.1796    0.0000 O.3     1  UNL1       -0.4496
      6 O           9.4288    2.0101    0.0000 O.3     1  UNL1       -0.4659
      7 O           7.9288    2.8761    0.0000 O.2     1  UNL1       -0.2475
      8 O           9.7386   -1.8589    0.0000 O.2     1  UNL1       -0.2466
      9 O           2.5357   -1.9082    0.0000 O.2     1  UNL1       -0.5034
     10 O           2.5519    0.1834    0.0000 O.2     1  UNL1       -0.2888
     11 O          10.5974   -1.2961    0.0000 O.2     1  UNL1       -0.2511
     12 C           7.0628   -0.3559    0.0000 C.3     1  UNL1        0.0468
     13 C           6.1968    0.1441    0.0000 C.3     1  UNL1        0.0055
     14 C           7.9288    0.1441    0.0000 C.3     1  UNL1        0.0602
     15 C           5.2868   -0.3628    0.0000 C.3     1  UNL1       -0.0123
     16 C           7.9288    1.1441    0.0000 C.3     1  UNL1        0.2007
     17 C           7.0789   -1.3974    0.0000 C.3     1  UNL1        0.1123
     18 C           6.1968    1.1441    0.0000 C.3     1  UNL1        0.0884
     19 C           5.2787   -1.4044    0.0000 C.3     1  UNL1       -0.0068
     20 C           6.9494    0.2477    0.0000 C.3     1  UNL1        0.0591
     21 C           7.0628    1.6441    0.0000 C.3     1  UNL1        0.1210
     22 C           6.1808   -1.9252    0.0000 C.3     1  UNL1       -0.0079
     23 C           8.8386   -0.3439    0.0000 C.3     1  UNL1        0.2056
     24 C           4.3599    0.2013    0.0000 C.3     1  UNL1        0.0198
     25 C           4.9520    0.5795    0.0000 C.3     1  UNL1       -0.0583
     26 C           4.3433   -1.9541    0.0000 C.2     1  UNL1       -0.0240
     27 C           8.4288    2.0101    0.0000 C.2     1  UNL1        0.3423
     28 C           8.8629   -1.3760    0.0000 C.2     1  UNL1        0.3491
     29 C           3.4120   -0.3266    0.0000 C.2     1  UNL1        0.1976
     30 C           3.4037   -1.4116    0.0000 C.2     1  UNL1        0.1584
     31 C           4.3472   -2.9541    0.0000 C.3     1  UNL1       -0.0397
     32 C          10.5700   -0.2965    0.0000 C.2     1  UNL1        0.3047
     33 C           9.9288    2.8761    0.0000 C.3     1  UNL1        0.0818
     34 C          11.4220    0.2271    0.0000 C.3     1  UNL1        0.0333
     35 H           5.4606    0.5691    0.0000 H       1  UNL1        0.0339
     36 H           8.3538   -0.5920    0.0000 H       1  UNL1        0.0384
     37 H           7.0856   -2.2474    0.0000 H       1  UNL1        0.0740
     38 H           6.1968    1.7641    0.0000 H       1  UNL1        0.0623
     39 H           5.2820   -2.2544    0.0000 H       1  UNL1        0.0353
     40 H           6.5222    0.6971    0.0000 H       1  UNL1        0.0567
     41 H           6.3974   -0.0347    0.0000 H       1  UNL1        0.0567
     42 H           7.5997    1.9541    0.0000 H       1  UNL1        0.0654
     43 H           5.7835   -2.4012    0.0000 H       1  UNL1        0.0307
     44 H           6.5818   -2.3981    0.0000 H       1  UNL1        0.0307
     45 H           9.3833   -0.6402    0.0000 H       1  UNL1        0.0857
     46 H           4.7681    0.6680    0.0000 H       1  UNL1        0.0352
     47 H           3.9700    0.6834    0.0000 H       1  UNL1        0.0352
     48 H           5.5362    0.7871    0.0000 H       1  UNL1        0.0235
     49 H           4.7444    1.1638    0.0000 H       1  UNL1        0.0235
     50 H           4.3678    0.3720    0.0000 H       1  UNL1        0.0235
     51 H           5.3307    2.2641    0.0000 H       1  UNL1        0.2099
     52 H           6.5259    2.9541    0.0000 H       1  UNL1        0.2100
     53 H           3.7272   -2.9565    0.0000 H       1  UNL1        0.0276
     54 H           4.3496   -3.5741    0.0000 H       1  UNL1        0.0276
     55 H           4.9672   -2.9517    0.0000 H       1  UNL1        0.0276
     56 H           2.0000   -1.5962    0.0000 H       1  UNL1        0.2923
     57 H          10.4658    2.5661    0.0000 H       1  UNL1        0.0661
     58 H          10.2388    3.4131    0.0000 H       1  UNL1        0.0661
     59 H           9.3919    3.1861    0.0000 H       1  UNL1        0.0661
     60 H          11.7466   -0.3012    0.0000 H       1  UNL1        0.0342
     61 H          11.9502    0.5517    0.0000 H       1  UNL1        0.0342
     62 H          11.0974    0.7553    0.0000 H       1  UNL1        0.0342
@<TRIPOS>BOND
     1     1    16    1
     2     1    20    1
     3     2    17    1
     4     2    28    1
     5    18     3    1
     6     3    51    1
     7    21     4    1
     8     4    52    1
     9    23     5    1
    10     5    32    1
    11     6    27    1
    12     6    33    1
    13     7    27    2
    14     8    28    2
    15     9    30    1
    16     9    56    1
    17    10    29    2
    18    11    32    2
    19    12    13    1
    20    12    14    1
    21    12    17    1
    22    12    20    1
    23    13    15    1
    24    13    18    1
    25    13    35    1
    26    14    16    1
    27    14    23    1
    28    14    36    1
    29    15    19    1
    30    15    24    1
    31    15    25    1
    32    16    21    1
    33    16    27    1
    34    17    22    1
    35    17    37    1
    36    18    21    1
    37    18    38    1
    38    19    22    1
    39    19    26    1
    40    19    39    1
    41    20    40    1
    42    20    41    1
    43    21    42    1
    44    22    43    1
    45    22    44    1
    46    23    28    1
    47    23    45    1
    48    24    29    1
    49    24    46    1
    50    24    47    1
    51    25    48    1
    52    25    49    1
    53    25    50    1
    54    26    30    2
    55    26    31    1
    56    29    30    1
    57    31    53    1
    58    31    54    1
    59    31    55    1
    60    32    34    1
    61    33    57    1
    62    33    58    1
    63    33    59    1
    64    34    60    1
    65    34    61    1
    66    34    62    1
