@<TRIPOS>MOLECULE
IMPHY015373
 14 13 0 0 0
SMALL
GASTEIGER

@<TRIPOS>ATOM
      1 O           5.4641    0.7500    0.0000 O.3     1  UNL1       -0.3946
      2 O           2.8660   -0.7500    0.0000 O.2     1  UNL1       -0.2976
      3 C           3.7320    0.7500    0.0000 C.3     1  UNL1        0.0287
      4 C           4.5981    0.2500    0.0000 C.3     1  UNL1        0.0509
      5 C           2.8660    0.2500    0.0000 C.2     1  UNL1        0.1325
      6 C           2.0000    0.7500    0.0000 C.3     1  UNL1       -0.0060
      7 H           4.1306    1.2250    0.0000 H       1  UNL1        0.0364
      8 H           3.3335    1.2250    0.0000 H       1  UNL1        0.0364
      9 H           4.1996   -0.2249    0.0000 H       1  UNL1        0.0561
     10 H           4.9966   -0.2249    0.0000 H       1  UNL1        0.0561
     11 H           2.3100    1.2869    0.0000 H       1  UNL1        0.0306
     12 H           1.4631    1.0600    0.0000 H       1  UNL1        0.0306
     13 H           1.6900    0.2131    0.0000 H       1  UNL1        0.0306
     14 H           6.0010    0.4400    0.0000 H       1  UNL1        0.2094
@<TRIPOS>BOND
     1     1     4    1
     2     1    14    1
     3     2     5    2
     4     3     4    1
     5     3     5    1
     6     3     7    1
     7     3     8    1
     8     4     9    1
     9     4    10    1
    10     5     6    1
    11     6    11    1
    12     6    12    1
    13     6    13    1
