@<TRIPOS>MOLECULE
IMPHY014635
 30 30 0 0 0
SMALL
GASTEIGER

@<TRIPOS>ATOM
      1 O           6.5010    1.1545    0.0000 O.3     1  UNL1       -0.3628
      2 O           4.2690    2.0205    0.0000 O.2     1  UNL1       -0.2884
      3 O           6.8671    3.5205    0.0000 O.3     1  UNL1       -0.4779
      4 O           6.0010    3.7526    0.0000 O.3     1  UNL1       -0.4779
      5 O           2.5369   -2.9795    0.0000 O.3     1  UNL1       -0.5033
      6 O           4.2690   -3.9795    0.0000 O.3     1  UNL1       -0.5033
      7 O           7.7331    2.0205    0.0000 O.2     1  UNL1       -0.2466
      8 O           4.5010    2.8865    0.0000 O.2     1  UNL1       -0.2466
      9 C           6.0010    2.0205    0.0000 C.3     1  UNL1        0.3213
     10 C           5.1350    1.5205    0.0000 C.2     1  UNL1        0.2099
     11 C           4.2690   -0.9795    0.0000 C.ar    1  UNL1       -0.0212
     12 C           5.1350    0.5205    0.0000 C.2     1  UNL1       -0.0145
     13 C           4.2690    0.0205    0.0000 C.2     1  UNL1       -0.0511
     14 C           3.4030   -1.4795    0.0000 C.ar    1  UNL1       -0.0094
     15 C           6.8671    2.5205    0.0000 C.2     1  UNL1        0.3563
     16 C           5.5010    2.8865    0.0000 C.2     1  UNL1        0.3563
     17 C           5.1350   -1.4795    0.0000 C.ar    1  UNL1       -0.0509
     18 C           3.4030   -2.4795    0.0000 C.ar    1  UNL1        0.1588
     19 C           5.1350   -2.4795    0.0000 C.ar    1  UNL1       -0.0160
     20 C           4.2690   -2.9795    0.0000 C.ar    1  UNL1        0.1582
     21 H           5.6720    0.2105    0.0000 H       1  UNL1        0.0654
     22 H           3.7320    0.3305    0.0000 H       1  UNL1        0.0625
     23 H           2.8660   -1.1695    0.0000 H       1  UNL1        0.0661
     24 H           5.6720   -1.1695    0.0000 H       1  UNL1        0.0625
     25 H           5.6720   -2.7895    0.0000 H       1  UNL1        0.0655
     26 H           7.1210    1.1545    0.0000 H       1  UNL1        0.2120
     27 H           7.4040    3.8305    0.0000 H       1  UNL1        0.2952
     28 H           5.6910    4.2895    0.0000 H       1  UNL1        0.2952
     29 H           2.0000   -2.6695    0.0000 H       1  UNL1        0.2923
     30 H           4.8059   -4.2895    0.0000 H       1  UNL1        0.2923
@<TRIPOS>BOND
     1     1     9    1
     2     1    26    1
     3     2    10    2
     4     3    15    1
     5     3    27    1
     6     4    16    1
     7     4    28    1
     8     5    18    1
     9     5    29    1
    10     6    20    1
    11     6    30    1
    12     7    15    2
    13     8    16    2
    14     9    10    1
    15     9    15    1
    16     9    16    1
    17    10    12    1
    18    11    13    1
    19    11    14   ar
    20    11    17   ar
    21    12    13    2
    22    12    21    1
    23    13    22    1
    24    14    18   ar
    25    14    23    1
    26    17    19   ar
    27    17    24    1
    28    18    20   ar
    29    19    20   ar
    30    19    25    1
