@<TRIPOS>MOLECULE
IMPHY011504
 72 73 0 0 0
SMALL
GASTEIGER

@<TRIPOS>ATOM
      1 O           6.0682   -3.0981    0.0000 O.3     1  UNL1       -0.4857
      2 O           2.5381   -1.0739    0.0000 O.3     1  UNL1       -0.5068
      3 C           6.9343   -2.5981    0.0000 C.3     1  UNL1        0.1082
      4 C           7.9343   -2.5981    0.0000 C.3     1  UNL1       -0.0132
      5 C           9.9343   -0.8660    0.0000 C.3     1  UNL1       -0.0439
      6 C           8.4343   -1.7320    0.0000 C.3     1  UNL1       -0.0492
      7 C           9.4343   -1.7320    0.0000 C.3     1  UNL1       -0.0503
      8 C           6.9343   -1.5981    0.0000 C.3     1  UNL1       -0.0091
      9 C          10.9343   -0.8660    0.0000 C.3     1  UNL1       -0.0505
     10 C          11.4343    0.0000    0.0000 C.3     1  UNL1       -0.0526
     11 C          12.9343    0.8660    0.0000 C.3     1  UNL1       -0.0439
     12 C          12.4343    0.0000    0.0000 C.3     1  UNL1       -0.0505
     13 C           6.0682   -1.0981    0.0000 C.3     1  UNL1       -0.0205
     14 C           7.4343   -3.4641    0.0000 C.3     1  UNL1       -0.0249
     15 C          13.9343    0.8660    0.0000 C.3     1  UNL1       -0.0505
     16 C           9.4343   -0.0000    0.0000 C.3     1  UNL1       -0.0624
     17 C           5.2022   -1.5981    0.0000 C.ar    1  UNL1       -0.0021
     18 C           5.2022   -2.5981    0.0000 C.ar    1  UNL1        0.1247
     19 C          14.4343    1.7320    0.0000 C.3     1  UNL1       -0.0526
     20 C          12.4343    1.7320    0.0000 C.3     1  UNL1       -0.0624
     21 C          15.4343    1.7320    0.0000 C.3     1  UNL1       -0.0507
     22 C          15.9343    2.5981    0.0000 C.3     1  UNL1       -0.0467
     23 C           4.3083   -1.0634    0.0000 C.ar    1  UNL1       -0.0135
     24 C           4.3083   -3.1327    0.0000 C.ar    1  UNL1       -0.0162
     25 C           3.4022   -1.5773    0.0000 C.ar    1  UNL1        0.1173
     26 C           3.4022   -2.6189    0.0000 C.ar    1  UNL1       -0.0167
     27 C          16.9343    2.5981    0.0000 C.3     1  UNL1       -0.0627
     28 C          15.4343    3.4641    0.0000 C.3     1  UNL1       -0.0627
     29 H           7.8266   -3.2087    0.0000 H       1  UNL1        0.0304
     30 H           8.5169   -2.8101    0.0000 H       1  UNL1        0.0304
     31 H          10.3593   -0.1299    0.0000 H       1  UNL1        0.0298
     32 H           8.5419   -1.1215    0.0000 H       1  UNL1        0.0267
     33 H           7.8517   -1.5200    0.0000 H       1  UNL1        0.0267
     34 H           9.3266   -2.3426    0.0000 H       1  UNL1        0.0268
     35 H          10.0169   -1.9441    0.0000 H       1  UNL1        0.0268
     36 H           7.5449   -1.7057    0.0000 H       1  UNL1        0.0307
     37 H           7.1463   -1.0155    0.0000 H       1  UNL1        0.0307
     38 H          10.8266   -1.4766    0.0000 H       1  UNL1        0.0268
     39 H          11.5169   -1.0781    0.0000 H       1  UNL1        0.0268
     40 H          11.5419    0.6106    0.0000 H       1  UNL1        0.0265
     41 H          10.8517    0.2121    0.0000 H       1  UNL1        0.0265
     42 H          13.3593    1.6022    0.0000 H       1  UNL1        0.0298
     43 H          12.3266   -0.6106    0.0000 H       1  UNL1        0.0268
     44 H          13.0169   -0.2121    0.0000 H       1  UNL1        0.0268
     45 H           6.4668   -0.6231    0.0000 H       1  UNL1        0.0316
     46 H           5.6697   -0.6231    0.0000 H       1  UNL1        0.0316
     47 H           6.8973   -3.7741    0.0000 H       1  UNL1        0.0268
     48 H           7.7443   -4.0010    0.0000 H       1  UNL1        0.0268
     49 H           7.9712   -3.1541    0.0000 H       1  UNL1        0.0268
     50 H          13.8266    0.2554    0.0000 H       1  UNL1        0.0268
     51 H          14.5169    0.6540    0.0000 H       1  UNL1        0.0268
     52 H           9.9712    0.3100    0.0000 H       1  UNL1        0.0232
     53 H           9.1243    0.5369    0.0000 H       1  UNL1        0.0232
     54 H           8.8973   -0.3100    0.0000 H       1  UNL1        0.0232
     55 H          14.5419    2.3426    0.0000 H       1  UNL1        0.0265
     56 H          13.8517    1.9441    0.0000 H       1  UNL1        0.0265
     57 H          12.9712    2.0420    0.0000 H       1  UNL1        0.0232
     58 H          12.1243    2.2690    0.0000 H       1  UNL1        0.0232
     59 H          11.8973    1.4220    0.0000 H       1  UNL1        0.0232
     60 H          15.3266    1.1215    0.0000 H       1  UNL1        0.0268
     61 H          16.0169    1.5200    0.0000 H       1  UNL1        0.0268
     62 H          16.2443    2.0611    0.0000 H       1  UNL1        0.0295
     63 H           4.3154   -0.4435    0.0000 H       1  UNL1        0.0658
     64 H           4.3154   -3.7527    0.0000 H       1  UNL1        0.0655
     65 H           2.8665   -2.9310    0.0000 H       1  UNL1        0.0655
     66 H          16.9343    1.9781    0.0000 H       1  UNL1        0.0232
     67 H          17.5543    2.5981    0.0000 H       1  UNL1        0.0232
     68 H          16.9343    3.2181    0.0000 H       1  UNL1        0.0232
     69 H          15.9712    3.7741    0.0000 H       1  UNL1        0.0232
     70 H          15.1243    4.0010    0.0000 H       1  UNL1        0.0232
     71 H          14.8973    3.1541    0.0000 H       1  UNL1        0.0232
     72 H           2.0000   -1.3818    0.0000 H       1  UNL1        0.2921
@<TRIPOS>BOND
     1     1     3    1
     2     1    18    1
     3     2    25    1
     4     2    72    1
     5     3     4    1
     6     3     8    1
     7     3    14    1
     8     4     6    1
     9     4    29    1
    10     4    30    1
    11     5     7    1
    12     5     9    1
    13     5    16    1
    14     5    31    1
    15     6     7    1
    16     6    32    1
    17     6    33    1
    18     7    34    1
    19     7    35    1
    20     8    13    1
    21     8    36    1
    22     8    37    1
    23     9    10    1
    24     9    38    1
    25     9    39    1
    26    10    12    1
    27    10    40    1
    28    10    41    1
    29    11    12    1
    30    11    15    1
    31    11    20    1
    32    11    42    1
    33    12    43    1
    34    12    44    1
    35    13    17    1
    36    13    45    1
    37    13    46    1
    38    14    47    1
    39    14    48    1
    40    14    49    1
    41    15    19    1
    42    15    50    1
    43    15    51    1
    44    16    52    1
    45    16    53    1
    46    16    54    1
    47    17    18   ar
    48    17    23   ar
    49    18    24   ar
    50    19    21    1
    51    19    55    1
    52    19    56    1
    53    20    57    1
    54    20    58    1
    55    20    59    1
    56    21    22    1
    57    21    60    1
    58    21    61    1
    59    22    27    1
    60    22    28    1
    61    22    62    1
    62    23    25   ar
    63    23    63    1
    64    24    26   ar
    65    24    64    1
    66    25    26   ar
    67    26    65    1
    68    27    66    1
    69    27    67    1
    70    27    68    1
    71    28    69    1
    72    28    70    1
    73    28    71    1
