@<TRIPOS>MOLECULE
IMPHY002249
 38 40 0 0 0
SMALL
GASTEIGER

@<TRIPOS>ATOM
      1 O           5.1650    2.2247    0.0000 O.2     1  UNL1       -0.4642
      2 O           7.2622    1.3003    0.0000 O.3     1  UNL1       -0.3838
      3 O           2.0000    1.3245    0.0000 O.2     1  UNL1       -0.2919
      4 C           4.6641   -0.1997    0.0000 C.3     1  UNL1       -0.0081
      5 C           3.7702   -0.7343    0.0000 C.3     1  UNL1       -0.0248
      6 C           5.5301   -0.6997    0.0000 C.3     1  UNL1       -0.0405
      7 C           4.6641    0.8003    0.0000 C.ar    1  UNL1        0.0100
      8 C           6.3961   -0.1997    0.0000 C.3     1  UNL1       -0.0101
      9 C           3.7817   -1.7342    0.0000 C.3     1  UNL1       -0.0429
     10 C           2.8641   -0.2205    0.0000 C.3     1  UNL1        0.0142
     11 C           6.3961    0.8003    0.0000 C.3     1  UNL1        0.1155
     12 C           5.5301    1.3003    0.0000 C.ar    1  UNL1        0.1375
     13 C           3.7702    1.3350    0.0000 C.ar    1  UNL1        0.0589
     14 C           2.8641    0.8212    0.0000 C.2     1  UNL1        0.1667
     15 C           7.2622   -0.6997    0.0000 C.3     1  UNL1       -0.0596
     16 C           2.9215   -2.2442    0.0000 C.3     1  UNL1       -0.0624
     17 C           4.6535   -2.2242    0.0000 C.3     1  UNL1       -0.0624
     18 C           4.1714    2.2442    0.0000 C.ar    1  UNL1        0.1029
     19 H           4.6706   -1.0496    0.0000 H       1  UNL1        0.0353
     20 H           3.2362   -1.0495    0.0000 H       1  UNL1        0.0313
     21 H           5.1316   -1.1746    0.0000 H       1  UNL1        0.0275
     22 H           5.9286   -1.1746    0.0000 H       1  UNL1        0.0275
     23 H           6.9331    0.1103    0.0000 H       1  UNL1        0.0327
     24 H           4.3150   -1.4181    0.0000 H       1  UNL1        0.0298
     25 H           2.2532   -0.1144    0.0000 H       1  UNL1        0.0348
     26 H           2.6550   -0.8042    0.0000 H       1  UNL1        0.0348
     27 H           6.3961    1.4203    0.0000 H       1  UNL1        0.0677
     28 H           6.9522   -1.2366    0.0000 H       1  UNL1        0.0233
     29 H           7.7991   -1.0097    0.0000 H       1  UNL1        0.0233
     30 H           7.5722   -0.1627    0.0000 H       1  UNL1        0.0233
     31 H           2.6054   -1.7109    0.0000 H       1  UNL1        0.0232
     32 H           2.3882   -2.5604    0.0000 H       1  UNL1        0.0232
     33 H           3.2377   -2.7776    0.0000 H       1  UNL1        0.0232
     34 H           4.3497   -2.7647    0.0000 H       1  UNL1        0.0232
     35 H           5.1940   -2.5280    0.0000 H       1  UNL1        0.0232
     36 H           4.9572   -1.6837    0.0000 H       1  UNL1        0.0232
     37 H           3.8380    2.7670    0.0000 H       1  UNL1        0.1037
     38 H           7.7991    0.9903    0.0000 H       1  UNL1        0.2104
@<TRIPOS>BOND
     1     1    12   ar
     2     1    18   ar
     3    11     2    1
     4     2    38    1
     5     3    14    2
     6     4     5    1
     7     4     6    1
     8     4     7    1
     9     4    19    1
    10     5     9    1
    11     5    10    1
    12     5    20    1
    13     6     8    1
    14     6    21    1
    15     6    22    1
    16     7    12   ar
    17     7    13   ar
    18     8    11    1
    19     8    15    1
    20     8    23    1
    21     9    16    1
    22     9    17    1
    23     9    24    1
    24    10    14    1
    25    10    25    1
    26    10    26    1
    27    11    12    1
    28    11    27    1
    29    13    14    1
    30    13    18   ar
    31    15    28    1
    32    15    29    1
    33    15    30    1
    34    16    31    1
    35    16    32    1
    36    16    33    1
    37    17    34    1
    38    17    35    1
    39    17    36    1
    40    18    37    1
