@<TRIPOS>MOLECULE
IMPHY002677
 24 23 0 0 0
SMALL
GASTEIGER

@<TRIPOS>ATOM
      1 O           9.4651    0.7500    0.0000 O.3     1  UNL1       -0.3950
      2 O           2.5369    0.7500    0.0000 O.3     1  UNL1       -0.4806
      3 O           3.4030   -0.7500    0.0000 O.2     1  UNL1       -0.2510
      4 C           6.0010    0.7500    0.0000 C.3     1  UNL1       -0.0525
      5 C           6.8671    0.2500    0.0000 C.3     1  UNL1       -0.0510
      6 C           5.1350    0.2500    0.0000 C.3     1  UNL1       -0.0430
      7 C           7.7331    0.7500    0.0000 C.3     1  UNL1       -0.0297
      8 C           4.2690    0.7500    0.0000 C.3     1  UNL1        0.0448
      9 C           8.5991    0.2500    0.0000 C.3     1  UNL1        0.0442
     10 C           3.4030    0.2500    0.0000 C.2     1  UNL1        0.3047
     11 H           6.3996    1.2250    0.0000 H       1  UNL1        0.0265
     12 H           5.6025    1.2250    0.0000 H       1  UNL1        0.0265
     13 H           6.4685   -0.2249    0.0000 H       1  UNL1        0.0266
     14 H           7.2656   -0.2249    0.0000 H       1  UNL1        0.0266
     15 H           4.7365   -0.2249    0.0000 H       1  UNL1        0.0270
     16 H           5.5335   -0.2249    0.0000 H       1  UNL1        0.0270
     17 H           8.1316    1.2250    0.0000 H       1  UNL1        0.0287
     18 H           7.3346    1.2250    0.0000 H       1  UNL1        0.0287
     19 H           4.6675    1.2250    0.0000 H       1  UNL1        0.0377
     20 H           3.8705    1.2250    0.0000 H       1  UNL1        0.0377
     21 H           8.2006   -0.2249    0.0000 H       1  UNL1        0.0557
     22 H           8.9976   -0.2249    0.0000 H       1  UNL1        0.0557
     23 H          10.0021    0.4400    0.0000 H       1  UNL1        0.2094
     24 H           2.0000    0.4400    0.0000 H       1  UNL1        0.2951
@<TRIPOS>BOND
     1     1     9    1
     2     1    23    1
     3     2    10    1
     4     2    24    1
     5     3    10    2
     6     4     5    1
     7     4     6    1
     8     4    11    1
     9     4    12    1
    10     5     7    1
    11     5    13    1
    12     5    14    1
    13     6     8    1
    14     6    15    1
    15     6    16    1
    16     7     9    1
    17     7    17    1
    18     7    18    1
    19     8    10    1
    20     8    19    1
    21     8    20    1
    22     9    21    1
    23     9    22    1
