@<TRIPOS>MOLECULE
IMPHY009992
 39 40 0 0 0
SMALL
GASTEIGER

@<TRIPOS>ATOM
      1 C           5.1881    0.9983    0.0000 C.3     1  UNL1       -0.0252
      2 C           5.1931   -0.0017    0.0000 C.3     1  UNL1       -0.0286
      3 C           6.1408   -0.3017    0.0000 C.3     1  UNL1       -0.0171
      4 C           6.1328    1.3077    0.0000 C.3     1  UNL1       -0.0465
      5 C           6.7204    0.5059    0.0000 C.3     1  UNL1       -0.0457
      6 C           4.4144   -0.6291    0.0000 C.3     1  UNL1       -0.0455
      7 C           4.4032    1.6179    0.0000 C.3     1  UNL1       -0.0288
      8 C           5.1831    1.9983    0.0000 C.3     1  UNL1       -0.0590
      9 C           3.4384   -0.4114    0.0000 C.3     1  UNL1       -0.0317
     10 C           6.4562   -1.2507    0.0000 C.2     1  UNL1       -0.0763
     11 C           3.4294    1.3905    0.0000 C.2     1  UNL1       -0.0845
     12 C           3.0000    0.4874    0.0000 C.2     1  UNL1       -0.0765
     13 C           7.4357   -1.4520    0.0000 C.3     1  UNL1       -0.0438
     14 C           5.7921   -1.9983    0.0000 C.2     1  UNL1       -0.0994
     15 C           2.0000    0.4824    0.0000 C.3     1  UNL1       -0.0438
     16 H           5.3076   -0.6110    0.0000 H       1  UNL1        0.0312
     17 H           6.7538   -0.3948    0.0000 H       1  UNL1        0.0348
     18 H           6.6686    1.6196    0.0000 H       1  UNL1        0.0271
     19 H           5.8789    1.8734    0.0000 H       1  UNL1        0.0271
     20 H           7.1833    0.0935    0.0000 H       1  UNL1        0.0271
     21 H           7.1792    0.9230    0.0000 H       1  UNL1        0.0271
     22 H           4.1482   -1.1890    0.0000 H       1  UNL1        0.0271
     23 H           4.9010   -1.0132    0.0000 H       1  UNL1        0.0271
     24 H           4.8860    2.0069    0.0000 H       1  UNL1        0.0313
     25 H           4.1314    2.1751    0.0000 H       1  UNL1        0.0313
     26 H           5.8031    2.0014    0.0000 H       1  UNL1        0.0235
     27 H           5.1800    2.6183    0.0000 H       1  UNL1        0.0235
     28 H           4.5631    1.9952    0.0000 H       1  UNL1        0.0235
     29 H           2.8346   -0.5524    0.0000 H       1  UNL1        0.0310
     30 H           3.4414   -1.0314    0.0000 H       1  UNL1        0.0310
     31 H           3.0404    1.8733    0.0000 H       1  UNL1        0.0572
     32 H           7.3109   -2.0593    0.0000 H       1  UNL1        0.0274
     33 H           8.0430   -1.5768    0.0000 H       1  UNL1        0.0274
     34 H           7.5606   -0.8447    0.0000 H       1  UNL1        0.0274
     35 H           5.1848   -1.8735    0.0000 H       1  UNL1        0.0534
     36 H           5.9876   -2.5866    0.0000 H       1  UNL1        0.0534
     37 H           1.9969    1.1024    0.0000 H       1  UNL1        0.0274
     38 H           1.3800    0.4793    0.0000 H       1  UNL1        0.0274
     39 H           2.0031   -0.1376    0.0000 H       1  UNL1        0.0274
@<TRIPOS>BOND
     1     1     2    1
     2     1     4    1
     3     1     7    1
     4     1     8    1
     5     2     3    1
     6     2     6    1
     7     2    16    1
     8     3     5    1
     9     3    10    1
    10     3    17    1
    11     4     5    1
    12     4    18    1
    13     4    19    1
    14     5    20    1
    15     5    21    1
    16     6     9    1
    17     6    22    1
    18     6    23    1
    19     7    11    1
    20     7    24    1
    21     7    25    1
    22     8    26    1
    23     8    27    1
    24     8    28    1
    25     9    12    1
    26     9    29    1
    27     9    30    1
    28    10    13    1
    29    10    14    2
    30    11    12    2
    31    11    31    1
    32    12    15    1
    33    13    32    1
    34    13    33    1
    35    13    34    1
    36    14    35    1
    37    14    36    1
    38    15    37    1
    39    15    38    1
    40    15    39    1
