@<TRIPOS>MOLECULE
IMPHY000001
 48 50 0 0 0
SMALL
GASTEIGER

@<TRIPOS>ATOM
      1 O           6.5468    2.7756    0.0000 O.3     1  UNL1       -0.4641
      2 O           4.8255    3.2368    0.0000 O.2     1  UNL1       -0.2505
      3 O           8.9035   -2.3860    0.0000 O.3     1  UNL1       -0.4915
      4 O           2.8660   -1.9268    0.0000 O.3     1  UNL1       -0.4915
      5 O          10.3898   -1.0478    0.0000 O.3     1  UNL1       -0.5033
      6 O           4.5981   -2.9268    0.0000 O.3     1  UNL1       -0.5033
      7 C           6.3776    1.1664    0.0000 C.3     1  UNL1        0.0105
      8 C           5.4641    1.5732    0.0000 C.3     1  UNL1        0.0666
      9 C           7.0468    1.9096    0.0000 C.3     1  UNL1        0.0963
     10 C           6.5856    0.1883    0.0000 C.3     1  UNL1       -0.0209
     11 C           4.5981    1.0732    0.0000 C.3     1  UNL1       -0.0143
     12 C           5.5686    2.5677    0.0000 C.2     1  UNL1        0.3109
     13 C           7.5366   -0.1207    0.0000 C.ar    1  UNL1       -0.0433
     14 C           4.5981    0.0732    0.0000 C.ar    1  UNL1       -0.0429
     15 C           7.7445   -1.0989    0.0000 C.ar    1  UNL1       -0.0131
     16 C           8.2798    0.5484    0.0000 C.ar    1  UNL1       -0.0549
     17 C           3.7320   -0.4268    0.0000 C.ar    1  UNL1       -0.0131
     18 C           5.4641   -0.4268    0.0000 C.ar    1  UNL1       -0.0549
     19 C           8.6956   -1.4079    0.0000 C.ar    1  UNL1        0.1615
     20 C           3.7320   -1.4268    0.0000 C.ar    1  UNL1        0.1615
     21 C           9.2308    0.2394    0.0000 C.ar    1  UNL1       -0.0163
     22 C           5.4641   -1.4268    0.0000 C.ar    1  UNL1       -0.0163
     23 C           9.4387   -0.7388    0.0000 C.ar    1  UNL1        0.1585
     24 C           4.5981   -1.9268    0.0000 C.ar    1  UNL1        0.1585
     25 C           9.8546   -2.6951    0.0000 C.3     1  UNL1        0.0790
     26 C           2.0000   -1.4268    0.0000 C.3     1  UNL1        0.0790
     27 H           5.8958    0.7763    0.0000 H       1  UNL1        0.0345
     28 H           4.9441    1.9108    0.0000 H       1  UNL1        0.0420
     29 H           7.4616    1.4488    0.0000 H       1  UNL1        0.0700
     30 H           7.5484    2.2740    0.0000 H       1  UNL1        0.0700
     31 H           5.9659    0.1667    0.0000 H       1  UNL1        0.0317
     32 H           6.4993   -0.4257    0.0000 H       1  UNL1        0.0317
     33 H           4.3860    1.6558    0.0000 H       1  UNL1        0.0321
     34 H           3.9875    0.9655    0.0000 H       1  UNL1        0.0321
     35 H           7.2838   -1.5137    0.0000 H       1  UNL1        0.0658
     36 H           8.1509    1.1548    0.0000 H       1  UNL1        0.0621
     37 H           3.1951   -0.1168    0.0000 H       1  UNL1        0.0658
     38 H           6.0010   -0.1168    0.0000 H       1  UNL1        0.0621
     39 H           9.6916    0.6542    0.0000 H       1  UNL1        0.0655
     40 H           6.0010   -1.7368    0.0000 H       1  UNL1        0.0655
     41 H          10.8505   -0.6329    0.0000 H       1  UNL1        0.2923
     42 H           5.1350   -3.2368    0.0000 H       1  UNL1        0.2923
     43 H           9.6630   -3.2847    0.0000 H       1  UNL1        0.0660
     44 H          10.4442   -2.8866    0.0000 H       1  UNL1        0.0660
     45 H          10.0461   -2.1054    0.0000 H       1  UNL1        0.0660
     46 H           2.3100   -0.8899    0.0000 H       1  UNL1        0.0660
     47 H           1.4631   -1.1168    0.0000 H       1  UNL1        0.0660
     48 H           1.6900   -1.9638    0.0000 H       1  UNL1        0.0660
@<TRIPOS>BOND
     1     1     9    1
     2     1    12    1
     3     2    12    2
     4     3    19    1
     5     3    25    1
     6     4    20    1
     7     4    26    1
     8     5    23    1
     9     5    41    1
    10     6    24    1
    11     6    42    1
    12     7     8    1
    13     7     9    1
    14     7    10    1
    15     7    27    1
    16     8    11    1
    17     8    12    1
    18     8    28    1
    19     9    29    1
    20     9    30    1
    21    10    13    1
    22    10    31    1
    23    10    32    1
    24    11    14    1
    25    11    33    1
    26    11    34    1
    27    13    15   ar
    28    13    16   ar
    29    14    17   ar
    30    14    18   ar
    31    15    19   ar
    32    15    35    1
    33    16    21   ar
    34    16    36    1
    35    17    20   ar
    36    17    37    1
    37    18    22   ar
    38    18    38    1
    39    19    23   ar
    40    20    24   ar
    41    21    23   ar
    42    21    39    1
    43    22    24   ar
    44    22    40    1
    45    25    43    1
    46    25    44    1
    47    25    45    1
    48    26    46    1
    49    26    47    1
    50    26    48    1
