@<TRIPOS>MOLECULE
IMPHY011082
 41 40 0 0 0
SMALL
GASTEIGER

@<TRIPOS>ATOM
      1 O          14.1244    0.2500    0.0000 O.2     1  UNL1       -0.3010
      2 C           9.7942   -0.2500    0.0000 C.3     1  UNL1       -0.0530
      3 C           8.9282    0.2500    0.0000 C.3     1  UNL1       -0.0528
      4 C          10.6603    0.2500    0.0000 C.3     1  UNL1       -0.0527
      5 C           8.0622   -0.2500    0.0000 C.3     1  UNL1       -0.0496
      6 C          11.5263   -0.2500    0.0000 C.3     1  UNL1       -0.0466
      7 C           7.1962    0.2500    0.0000 C.3     1  UNL1       -0.0348
      8 C          12.3923    0.2500    0.0000 C.3     1  UNL1        0.0028
      9 C           6.3301   -0.2500    0.0000 C.2     1  UNL1       -0.0879
     10 C           4.5981   -0.2500    0.0000 C.3     1  UNL1       -0.0348
     11 C           3.7320    0.2500    0.0000 C.3     1  UNL1       -0.0499
     12 C           5.4641    0.2500    0.0000 C.2     1  UNL1       -0.0879
     13 C           2.8660   -0.2500    0.0000 C.3     1  UNL1       -0.0556
     14 C          13.2583   -0.2500    0.0000 C.2     1  UNL1        0.1203
     15 C           2.0000    0.2500    0.0000 C.3     1  UNL1       -0.0653
     16 H           9.3957   -0.7249    0.0000 H       1  UNL1        0.0265
     17 H          10.1928   -0.7249    0.0000 H       1  UNL1        0.0265
     18 H           9.3267    0.7249    0.0000 H       1  UNL1        0.0265
     19 H           8.5297    0.7249    0.0000 H       1  UNL1        0.0265
     20 H          11.0588    0.7249    0.0000 H       1  UNL1        0.0265
     21 H          10.2617    0.7249    0.0000 H       1  UNL1        0.0265
     22 H           7.6636   -0.7249    0.0000 H       1  UNL1        0.0268
     23 H           8.4607   -0.7249    0.0000 H       1  UNL1        0.0268
     24 H          11.1278   -0.7249    0.0000 H       1  UNL1        0.0269
     25 H          11.9248   -0.7249    0.0000 H       1  UNL1        0.0269
     26 H           7.5947    0.7249    0.0000 H       1  UNL1        0.0307
     27 H           6.7976    0.7249    0.0000 H       1  UNL1        0.0307
     28 H          12.7908    0.7249    0.0000 H       1  UNL1        0.0339
     29 H          11.9938    0.7249    0.0000 H       1  UNL1        0.0339
     30 H           6.3301   -0.8700    0.0000 H       1  UNL1        0.0569
     31 H           4.1996   -0.7249    0.0000 H       1  UNL1        0.0307
     32 H           4.9966   -0.7249    0.0000 H       1  UNL1        0.0307
     33 H           4.1306    0.7249    0.0000 H       1  UNL1        0.0268
     34 H           3.3335    0.7249    0.0000 H       1  UNL1        0.0268
     35 H           5.4641    0.8700    0.0000 H       1  UNL1        0.0569
     36 H           2.4675   -0.7249    0.0000 H       1  UNL1        0.0263
     37 H           3.2646   -0.7249    0.0000 H       1  UNL1        0.0263
     38 H          13.2583   -0.8700    0.0000 H       1  UNL1        0.1026
     39 H           2.3100    0.7869    0.0000 H       1  UNL1        0.0230
     40 H           1.4631    0.5600    0.0000 H       1  UNL1        0.0230
     41 H           1.6900   -0.2869    0.0000 H       1  UNL1        0.0230
@<TRIPOS>BOND
     1     1    14    2
     2     2     3    1
     3     2     4    1
     4     2    16    1
     5     2    17    1
     6     3     5    1
     7     3    18    1
     8     3    19    1
     9     4     6    1
    10     4    20    1
    11     4    21    1
    12     5     7    1
    13     5    22    1
    14     5    23    1
    15     6     8    1
    16     6    24    1
    17     6    25    1
    18     7     9    1
    19     7    26    1
    20     7    27    1
    21     8    14    1
    22     8    28    1
    23     8    29    1
    24     9    12    2
    25     9    30    1
    26    10    11    1
    27    10    12    1
    28    10    31    1
    29    10    32    1
    30    11    13    1
    31    11    33    1
    32    11    34    1
    33    12    35    1
    34    13    15    1
    35    13    36    1
    36    13    37    1
    37    14    38    1
    38    15    39    1
    39    15    40    1
    40    15    41    1
