@<TRIPOS>MOLECULE
IMPHY017803
 32 32 0 0 0
SMALL
GASTEIGER

@<TRIPOS>ATOM
      1 O           2.8660    0.5000    0.0000 O.3     1  UNL1       -0.4948
      2 O           6.3301   -1.5000    0.0000 O.3     1  UNL1       -0.4951
      3 C           4.5981    1.5000    0.0000 C.3     1  UNL1       -0.0091
      4 C           4.5981    0.5000    0.0000 C.ar    1  UNL1        0.0031
      5 C           4.5981    2.5000    0.0000 C.3     1  UNL1       -0.0559
      6 C           5.5981    1.5000    0.0000 C.3     1  UNL1       -0.0559
      7 C           3.5981    1.5000    0.0000 C.3     1  UNL1       -0.0559
      8 C           3.7320    0.0000    0.0000 C.ar    1  UNL1        0.1240
      9 C           5.4641    0.0000    0.0000 C.ar    1  UNL1       -0.0128
     10 C           5.4641   -1.0000    0.0000 C.ar    1  UNL1        0.1206
     11 C           3.7320   -1.0000    0.0000 C.ar    1  UNL1       -0.0162
     12 C           4.5981   -1.5000    0.0000 C.ar    1  UNL1       -0.0165
     13 C           2.0000    0.0000    0.0000 C.3     1  UNL1        0.0788
     14 C           6.3301   -2.5000    0.0000 C.3     1  UNL1        0.0788
     15 H           5.2181    2.5000    0.0000 H       1  UNL1        0.0238
     16 H           4.5981    3.1200    0.0000 H       1  UNL1        0.0238
     17 H           3.9781    2.5000    0.0000 H       1  UNL1        0.0238
     18 H           5.5981    0.8800    0.0000 H       1  UNL1        0.0238
     19 H           6.2181    1.5000    0.0000 H       1  UNL1        0.0238
     20 H           5.5981    2.1200    0.0000 H       1  UNL1        0.0238
     21 H           3.5981    2.1200    0.0000 H       1  UNL1        0.0238
     22 H           2.9781    1.5000    0.0000 H       1  UNL1        0.0238
     23 H           3.5981    0.8800    0.0000 H       1  UNL1        0.0238
     24 H           6.0010    0.3100    0.0000 H       1  UNL1        0.0658
     25 H           3.1951   -1.3100    0.0000 H       1  UNL1        0.0655
     26 H           4.5981   -2.1200    0.0000 H       1  UNL1        0.0655
     27 H           1.6900    0.5369    0.0000 H       1  UNL1        0.0660
     28 H           1.4631   -0.3100    0.0000 H       1  UNL1        0.0660
     29 H           2.3100   -0.5369    0.0000 H       1  UNL1        0.0660
     30 H           5.7101   -2.5000    0.0000 H       1  UNL1        0.0660
     31 H           6.3301   -3.1200    0.0000 H       1  UNL1        0.0660
     32 H           6.9501   -2.5000    0.0000 H       1  UNL1        0.0660
@<TRIPOS>BOND
     1     1     8    1
     2     1    13    1
     3     2    10    1
     4     2    14    1
     5     3     4    1
     6     3     5    1
     7     3     6    1
     8     3     7    1
     9     4     8   ar
    10     4     9   ar
    11     5    15    1
    12     5    16    1
    13     5    17    1
    14     6    18    1
    15     6    19    1
    16     6    20    1
    17     7    21    1
    18     7    22    1
    19     7    23    1
    20     8    11   ar
    21     9    10   ar
    22     9    24    1
    23    10    12   ar
    24    11    12   ar
    25    11    25    1
    26    12    26    1
    27    13    27    1
    28    13    28    1
    29    13    29    1
    30    14    30    1
    31    14    31    1
    32    14    32    1
