@<TRIPOS>MOLECULE
IMPHY010039
 50 53 0 0 0
SMALL
GASTEIGER

@<TRIPOS>ATOM
      1 O           5.1350   -0.3913    0.0000 O.3     1  UNL1       -0.3369
      2 O           6.0010    1.1087    0.0000 O.3     1  UNL1       -0.4535
      3 O           2.5369    1.1087    0.0000 O.3     1  UNL1       -0.3864
      4 O           4.2690    2.1087    0.0000 O.3     1  UNL1       -0.3829
      5 O           2.5369   -0.8913    0.0000 O.3     1  UNL1       -0.3869
      6 O           9.4931   -0.9259    0.0000 O.2     1  UNL1       -0.4544
      7 O           6.0010   -0.8913    0.0000 O.3     1  UNL1       -0.4912
      8 O           7.7331    2.1087    0.0000 O.3     1  UNL1       -0.5027
      9 O           9.4815    2.1433    0.0000 O.2     1  UNL1       -0.2869
     10 C           3.4030    0.6087    0.0000 C.3     1  UNL1        0.1148
     11 C           4.2690    1.1087    0.0000 C.3     1  UNL1        0.1454
     12 C           3.4030   -0.3913    0.0000 C.3     1  UNL1        0.1070
     13 C           5.1350    0.6087    0.0000 C.3     1  UNL1        0.2308
     14 C           4.2690   -0.8913    0.0000 C.3     1  UNL1        0.0802
     15 C           6.8671    0.6087    0.0000 C.ar    1  UNL1        0.2074
     16 C           7.7331    1.1087    0.0000 C.ar    1  UNL1        0.1769
     17 C           6.8671   -0.3913    0.0000 C.ar    1  UNL1        0.1688
     18 C           8.5991    0.6087    0.0000 C.ar    1  UNL1        0.1091
     19 C           8.5991   -0.3913    0.0000 C.ar    1  UNL1        0.1465
     20 C           7.7331   -0.8913    0.0000 C.ar    1  UNL1        0.0270
     21 C           9.4931    1.1434    0.0000 C.ar    1  UNL1        0.1967
     22 C          10.3991   -0.4121    0.0000 C.ar    1  UNL1        0.1392
     23 C          10.3991    0.6296    0.0000 C.ar    1  UNL1        0.0288
     24 C          11.2632   -0.9154    0.0000 C.ar    1  UNL1        0.0174
     25 C           6.0010   -1.8913    0.0000 C.3     1  UNL1        0.0790
     26 C          11.2594   -1.9154    0.0000 C.ar    1  UNL1       -0.0511
     27 C          12.1312   -0.4188    0.0000 C.ar    1  UNL1       -0.0511
     28 C          12.1235   -2.4187    0.0000 C.ar    1  UNL1       -0.0611
     29 C          12.9953   -0.9221    0.0000 C.ar    1  UNL1       -0.0611
     30 C          12.9914   -1.9221    0.0000 C.ar    1  UNL1       -0.0617
     31 H           2.8660    0.2987    0.0000 H       1  UNL1        0.0648
     32 H           4.8059    1.4187    0.0000 H       1  UNL1        0.0683
     33 H           3.4030   -1.0113    0.0000 H       1  UNL1        0.0643
     34 H           5.6720    0.2987    0.0000 H       1  UNL1        0.1084
     35 H           3.8705   -1.3662    0.0000 H       1  UNL1        0.0588
     36 H           4.6675   -1.3662    0.0000 H       1  UNL1        0.0588
     37 H           2.0000    0.7987    0.0000 H       1  UNL1        0.2100
     38 H           3.7320    2.4187    0.0000 H       1  UNL1        0.2102
     39 H           2.5369   -1.5113    0.0000 H       1  UNL1        0.2100
     40 H           7.7331   -1.5113    0.0000 H       1  UNL1        0.0692
     41 H          10.9349    0.9416    0.0000 H       1  UNL1        0.0693
     42 H           7.1962    2.4187    0.0000 H       1  UNL1        0.2923
     43 H           5.3810   -1.8913    0.0000 H       1  UNL1        0.0660
     44 H           6.0010   -2.5113    0.0000 H       1  UNL1        0.0660
     45 H           6.6210   -1.8913    0.0000 H       1  UNL1        0.0660
     46 H          10.7212   -2.2233    0.0000 H       1  UNL1        0.0625
     47 H          12.1336    0.2012    0.0000 H       1  UNL1        0.0625
     48 H          12.1211   -3.0387    0.0000 H       1  UNL1        0.0618
     49 H          13.5334   -0.6142    0.0000 H       1  UNL1        0.0618
     50 H          13.5271   -2.2342    0.0000 H       1  UNL1        0.0618
@<TRIPOS>BOND
     1     1    13    1
     2     1    14    1
     3    13     2    1
     4     2    15    1
     5    10     3    1
     6     3    37    1
     7     4    11    1
     8     4    38    1
     9    12     5    1
    10     5    39    1
    11     6    19   ar
    12     6    22   ar
    13     7    17    1
    14     7    25    1
    15     8    16    1
    16     8    42    1
    17     9    21    2
    18    10    11    1
    19    10    12    1
    20    10    31    1
    21    11    13    1
    22    11    32    1
    23    12    14    1
    24    12    33    1
    25    13    34    1
    26    14    35    1
    27    14    36    1
    28    15    16   ar
    29    15    17   ar
    30    16    18   ar
    31    17    20   ar
    32    18    19   ar
    33    18    21   ar
    34    19    20   ar
    35    20    40    1
    36    21    23   ar
    37    22    23   ar
    38    22    24    1
    39    23    41    1
    40    24    26   ar
    41    24    27   ar
    42    25    43    1
    43    25    44    1
    44    25    45    1
    45    26    28   ar
    46    26    46    1
    47    27    29   ar
    48    27    47    1
    49    28    30   ar
    50    28    48    1
    51    29    30   ar
    52    29    49    1
    53    30    50    1
