@<TRIPOS>MOLECULE
IMPHY016570
 36 35 0 0 0
SMALL
GASTEIGER

@<TRIPOS>ATOM
      1 O           2.5369   -1.5000    0.0000 O.3     1  UNL1       -0.4806
      2 O           3.4030   -3.0000    0.0000 O.2     1  UNL1       -0.2510
      3 C           8.5991    1.0000    0.0000 C.3     1  UNL1       -0.0528
      4 C           8.5991   -0.0000    0.0000 C.3     1  UNL1       -0.0496
      5 C           9.4651    1.5000    0.0000 C.3     1  UNL1       -0.0533
      6 C           7.7331   -0.5000    0.0000 C.3     1  UNL1       -0.0348
      7 C           9.4651    2.5000    0.0000 C.3     1  UNL1       -0.0559
      8 C           7.7331   -1.5000    0.0000 C.2     1  UNL1       -0.0879
      9 C           6.0010   -1.5000    0.0000 C.3     1  UNL1       -0.0343
     10 C           5.1350   -2.0000    0.0000 C.3     1  UNL1       -0.0395
     11 C           6.8671   -2.0000    0.0000 C.2     1  UNL1       -0.0879
     12 C          10.3312    3.0000    0.0000 C.3     1  UNL1       -0.0653
     13 C           4.2690   -1.5000    0.0000 C.3     1  UNL1        0.0451
     14 C           3.4030   -2.0000    0.0000 C.2     1  UNL1        0.3047
     15 H           8.3871    1.5826    0.0000 H       1  UNL1        0.0265
     16 H           7.9885    0.8923    0.0000 H       1  UNL1        0.0265
     17 H           8.8112   -0.5826    0.0000 H       1  UNL1        0.0268
     18 H           9.2097    0.1077    0.0000 H       1  UNL1        0.0268
     19 H           9.6772    0.9174    0.0000 H       1  UNL1        0.0265
     20 H          10.0757    1.6077    0.0000 H       1  UNL1        0.0265
     21 H           7.5210    0.0826    0.0000 H       1  UNL1        0.0307
     22 H           7.1225   -0.6077    0.0000 H       1  UNL1        0.0307
     23 H           9.2531    3.0826    0.0000 H       1  UNL1        0.0263
     24 H           8.8546    2.3923    0.0000 H       1  UNL1        0.0263
     25 H           8.2700   -1.8100    0.0000 H       1  UNL1        0.0569
     26 H           6.3996   -1.0250    0.0000 H       1  UNL1        0.0307
     27 H           5.6025   -1.0250    0.0000 H       1  UNL1        0.0307
     28 H           4.7365   -2.4750    0.0000 H       1  UNL1        0.0273
     29 H           5.5335   -2.4750    0.0000 H       1  UNL1        0.0273
     30 H           6.8671   -2.6200    0.0000 H       1  UNL1        0.0569
     31 H          10.6412    2.4631    0.0000 H       1  UNL1        0.0230
     32 H          10.8681    3.3100    0.0000 H       1  UNL1        0.0230
     33 H          10.0212    3.5369    0.0000 H       1  UNL1        0.0230
     34 H           4.6675   -1.0250    0.0000 H       1  UNL1        0.0378
     35 H           3.8705   -1.0250    0.0000 H       1  UNL1        0.0378
     36 H           2.0000   -1.8100    0.0000 H       1  UNL1        0.2951
@<TRIPOS>BOND
     1     1    14    1
     2     1    36    1
     3     2    14    2
     4     3     4    1
     5     3     5    1
     6     3    15    1
     7     3    16    1
     8     4     6    1
     9     4    17    1
    10     4    18    1
    11     5     7    1
    12     5    19    1
    13     5    20    1
    14     6     8    1
    15     6    21    1
    16     6    22    1
    17     7    12    1
    18     7    23    1
    19     7    24    1
    20     8    11    2
    21     8    25    1
    22     9    10    1
    23     9    11    1
    24     9    26    1
    25     9    27    1
    26    10    13    1
    27    10    28    1
    28    10    29    1
    29    11    30    1
    30    12    31    1
    31    12    32    1
    32    12    33    1
    33    13    14    1
    34    13    34    1
    35    13    35    1
