@<TRIPOS>MOLECULE
IMPHY000173
 29 30 0 0 0
SMALL
GASTEIGER

@<TRIPOS>ATOM
      1 O           2.3100   -0.1200    0.0000 O.3     1  UNL1       -0.3915
      2 C           4.8488    0.3800    0.0000 C.3     1  UNL1       -0.0211
      3 C           4.8488   -0.6200    0.0000 C.3     1  UNL1       -0.0296
      4 C           5.7154   -0.1200    0.0000 C.3     1  UNL1       -0.0431
      5 C           3.8978   -0.9290    0.0000 C.3     1  UNL1       -0.0144
      6 C           3.8978    0.6891    0.0000 C.3     1  UNL1       -0.0204
      7 C           3.3100   -0.1200    0.0000 C.3     1  UNL1        0.0586
      8 C           4.8488    1.3800    0.0000 C.3     1  UNL1       -0.0407
      9 C           3.5888   -1.8800    0.0000 C.3     1  UNL1       -0.0598
     10 C           5.7149    1.8800    0.0000 C.3     1  UNL1       -0.0622
     11 C           3.9828    1.8800    0.0000 C.3     1  UNL1       -0.0622
     12 H           5.1010   -1.1864    0.0000 H       1  UNL1        0.0310
     13 H           6.1139   -0.5949    0.0000 H       1  UNL1        0.0274
     14 H           6.1139    0.3550    0.0000 H       1  UNL1        0.0274
     15 H           3.2854   -1.0260    0.0000 H       1  UNL1        0.0326
     16 H           4.1500    1.2554    0.0000 H       1  UNL1        0.0296
     17 H           3.3608    0.9991    0.0000 H       1  UNL1        0.0296
     18 H           3.0285    0.4325    0.0000 H       1  UNL1        0.0596
     19 H           4.3119    1.0700    0.0000 H       1  UNL1        0.0301
     20 H           2.9991   -1.6884    0.0000 H       1  UNL1        0.0233
     21 H           3.3972   -2.4697    0.0000 H       1  UNL1        0.0233
     22 H           4.1784   -2.0716    0.0000 H       1  UNL1        0.0233
     23 H           6.0249    1.3431    0.0000 H       1  UNL1        0.0233
     24 H           6.2518    2.1900    0.0000 H       1  UNL1        0.0233
     25 H           5.4049    2.4170    0.0000 H       1  UNL1        0.0233
     26 H           4.2928    2.4170    0.0000 H       1  UNL1        0.0233
     27 H           3.4459    2.1900    0.0000 H       1  UNL1        0.0233
     28 H           3.6728    1.3431    0.0000 H       1  UNL1        0.0233
     29 H           2.0000   -0.6569    0.0000 H       1  UNL1        0.2098
@<TRIPOS>BOND
     1     1     7    1
     2     1    29    1
     3     2     3    1
     4     2     4    1
     5     2     6    1
     6     2     8    1
     7     3     4    1
     8     3     5    1
     9     3    12    1
    10     4    13    1
    11     4    14    1
    12     5     7    1
    13     5     9    1
    14     5    15    1
    15     6     7    1
    16     6    16    1
    17     6    17    1
    18     7    18    1
    19     8    10    1
    20     8    11    1
    21     8    19    1
    22     9    20    1
    23     9    21    1
    24     9    22    1
    25    10    23    1
    26    10    24    1
    27    10    25    1
    28    11    26    1
    29    11    27    1
    30    11    28    1
