@<TRIPOS>MOLECULE
IMPHY015568
 42 43 0 0 0
SMALL
GASTEIGER

@<TRIPOS>ATOM
      1 O           2.3100   -0.2450    0.0000 O.3     1  UNL1       -0.3848
      2 C           5.0420    0.7550    0.0000 C.3     1  UNL1       -0.0169
      3 C           5.9360   -0.7797    0.0000 C.3     1  UNL1       -0.0172
      4 C           5.9360    1.2896    0.0000 C.3     1  UNL1       -0.0373
      5 C           5.0420   -0.2450    0.0000 C.2     1  UNL1       -0.0641
      6 C           6.8421   -0.2658    0.0000 C.3     1  UNL1       -0.0460
      7 C           6.8421    0.7758    0.0000 C.3     1  UNL1       -0.0494
      8 C           4.1760    1.2550    0.0000 C.3     1  UNL1       -0.0434
      9 C           3.3100   -0.2450    0.0000 C.3     1  UNL1        0.0816
     10 C           3.3100    0.7550    0.0000 C.3     1  UNL1       -0.0201
     11 C           5.9244   -1.7796    0.0000 C.3     1  UNL1       -0.0402
     12 C           4.1760   -0.7450    0.0000 C.2     1  UNL1       -0.0533
     13 C           5.9244    2.2896    0.0000 C.3     1  UNL1       -0.0619
     14 C           2.8100   -1.1110    0.0000 C.3     1  UNL1       -0.0324
     15 C           6.7846   -2.2896    0.0000 C.3     1  UNL1       -0.0621
     16 C           5.0527   -2.2696    0.0000 C.3     1  UNL1       -0.0621
     17 H           5.0373    1.3750    0.0000 H       1  UNL1        0.0348
     18 H           6.4699   -1.0948    0.0000 H       1  UNL1        0.0348
     19 H           5.3949    1.5924    0.0000 H       1  UNL1        0.0304
     20 H           7.0511   -0.8495    0.0000 H       1  UNL1        0.0271
     21 H           7.4529   -0.1597    0.0000 H       1  UNL1        0.0271
     22 H           7.4529    0.6697    0.0000 H       1  UNL1        0.0268
     23 H           7.0511    1.3595    0.0000 H       1  UNL1        0.0268
     24 H           4.5746    1.7299    0.0000 H       1  UNL1        0.0272
     25 H           3.7775    1.7299    0.0000 H       1  UNL1        0.0272
     26 H           3.0980    1.3376    0.0000 H       1  UNL1        0.0296
     27 H           2.6994    0.6473    0.0000 H       1  UNL1        0.0296
     28 H           6.4649   -1.4758    0.0000 H       1  UNL1        0.0301
     29 H           4.1760   -1.3650    0.0000 H       1  UNL1        0.0600
     30 H           6.5444    2.2968    0.0000 H       1  UNL1        0.0233
     31 H           5.9173    2.9095    0.0000 H       1  UNL1        0.0233
     32 H           5.3045    2.2824    0.0000 H       1  UNL1        0.0233
     33 H           2.2731   -0.8010    0.0000 H       1  UNL1        0.0260
     34 H           2.5000   -1.6480    0.0000 H       1  UNL1        0.0260
     35 H           3.3469   -1.4210    0.0000 H       1  UNL1        0.0260
     36 H           6.4684   -2.8229    0.0000 H       1  UNL1        0.0233
     37 H           7.3179   -2.6058    0.0000 H       1  UNL1        0.0233
     38 H           7.1008   -1.7563    0.0000 H       1  UNL1        0.0233
     39 H           4.7489   -1.7291    0.0000 H       1  UNL1        0.0233
     40 H           4.5122   -2.5733    0.0000 H       1  UNL1        0.0233
     41 H           5.3564   -2.8100    0.0000 H       1  UNL1        0.0233
     42 H           2.0000    0.2919    0.0000 H       1  UNL1        0.2106
@<TRIPOS>BOND
     1     9     1    1
     2     1    42    1
     3     2     4    1
     4     2     5    1
     5     2     8    1
     6     2    17    1
     7     3     5    1
     8     3     6    1
     9     3    11    1
    10     3    18    1
    11     4     7    1
    12     4    13    1
    13     4    19    1
    14     5    12    2
    15     6     7    1
    16     6    20    1
    17     6    21    1
    18     7    22    1
    19     7    23    1
    20     8    10    1
    21     8    24    1
    22     8    25    1
    23     9    10    1
    24     9    12    1
    25     9    14    1
    26    10    26    1
    27    10    27    1
    28    11    15    1
    29    11    16    1
    30    11    28    1
    31    12    29    1
    32    13    30    1
    33    13    31    1
    34    13    32    1
    35    14    33    1
    36    14    34    1
    37    14    35    1
    38    15    36    1
    39    15    37    1
    40    15    38    1
    41    16    39    1
    42    16    40    1
    43    16    41    1
