@<TRIPOS>MOLECULE
IMPHY007606
 26 26 0 0 0
SMALL
GASTEIGER

@<TRIPOS>ATOM
      1 O           2.5369    0.7500    0.0000 O.3     1  UNL1       -0.5065
      2 O           6.0010   -1.2500    0.0000 O.3     1  UNL1       -0.5065
      3 C           4.2690    1.7500    0.0000 C.3     1  UNL1       -0.0180
      4 C           4.2690    0.7500    0.0000 C.ar    1  UNL1        0.0001
      5 C           5.1350    2.2500    0.0000 C.3     1  UNL1       -0.0585
      6 C           3.4030    2.2500    0.0000 C.3     1  UNL1       -0.0585
      7 C           3.4030    0.2500    0.0000 C.ar    1  UNL1        0.1207
      8 C           5.1350    0.2500    0.0000 C.ar    1  UNL1       -0.0130
      9 C           4.2690   -1.2500    0.0000 C.ar    1  UNL1       -0.0056
     10 C           5.1350   -0.7500    0.0000 C.ar    1  UNL1        0.1202
     11 C           3.4030   -0.7500    0.0000 C.ar    1  UNL1       -0.0135
     12 C           4.2690   -2.2500    0.0000 C.3     1  UNL1       -0.0361
     13 H           4.2690    2.3700    0.0000 H       1  UNL1        0.0345
     14 H           5.4450    1.7131    0.0000 H       1  UNL1        0.0235
     15 H           5.6720    2.5600    0.0000 H       1  UNL1        0.0235
     16 H           4.8250    2.7869    0.0000 H       1  UNL1        0.0235
     17 H           3.7130    2.7869    0.0000 H       1  UNL1        0.0235
     18 H           2.8660    2.5600    0.0000 H       1  UNL1        0.0235
     19 H           3.0930    1.7131    0.0000 H       1  UNL1        0.0235
     20 H           5.6720    0.5600    0.0000 H       1  UNL1        0.0658
     21 H           2.8660   -1.0600    0.0000 H       1  UNL1        0.0658
     22 H           3.6490   -2.2500    0.0000 H       1  UNL1        0.0279
     23 H           4.2690   -2.8700    0.0000 H       1  UNL1        0.0279
     24 H           4.8890   -2.2500    0.0000 H       1  UNL1        0.0279
     25 H           2.0000    0.4400    0.0000 H       1  UNL1        0.2921
     26 H           6.5380   -0.9400    0.0000 H       1  UNL1        0.2921
@<TRIPOS>BOND
     1     1     7    1
     2     1    25    1
     3     2    10    1
     4     2    26    1
     5     3     4    1
     6     3     5    1
     7     3     6    1
     8     3    13    1
     9     4     7   ar
    10     4     8   ar
    11     5    14    1
    12     5    15    1
    13     5    16    1
    14     6    17    1
    15     6    18    1
    16     6    19    1
    17     7    11   ar
    18     8    10   ar
    19     8    20    1
    20     9    10   ar
    21     9    11   ar
    22     9    12    1
    23    11    21    1
    24    12    22    1
    25    12    23    1
    26    12    24    1
