@<TRIPOS>MOLECULE
IMPHY013827
 27 27 0 0 0
SMALL
GASTEIGER

@<TRIPOS>ATOM
      1 O           4.2690    1.0000    0.0000 O.3     1  UNL1       -0.3405
      2 O           2.5369   -1.0000    0.0000 O.3     1  UNL1       -0.3865
      3 O           4.2690   -2.0000    0.0000 O.3     1  UNL1       -0.3864
      4 O           6.0010   -1.0000    0.0000 O.3     1  UNL1       -0.3841
      5 O           6.0010    1.0000    0.0000 O.3     1  UNL1       -0.3520
      6 O           2.5369    2.0000    0.0000 O.3     1  UNL1       -0.3924
      7 C           3.4030   -0.5000    0.0000 C.3     1  UNL1        0.1119
      8 C           4.2690   -1.0000    0.0000 C.3     1  UNL1        0.1141
      9 C           3.4030    0.5000    0.0000 C.3     1  UNL1        0.1130
     10 C           5.1350   -0.5000    0.0000 C.3     1  UNL1        0.1341
     11 C           5.1350    0.5000    0.0000 C.3     1  UNL1        0.1876
     12 C           2.5369    1.0000    0.0000 C.3     1  UNL1        0.0730
     13 C           6.0010    2.0000    0.0000 C.3     1  UNL1        0.0395
     14 H           3.4030   -1.1200    0.0000 H       1  UNL1        0.0647
     15 H           3.7320   -1.3100    0.0000 H       1  UNL1        0.0648
     16 H           3.4030    1.1200    0.0000 H       1  UNL1        0.0647
     17 H           5.1350   -1.1200    0.0000 H       1  UNL1        0.0671
     18 H           5.1350    1.1200    0.0000 H       1  UNL1        0.0937
     19 H           1.9264    1.1077    0.0000 H       1  UNL1        0.0584
     20 H           2.3249    0.4174    0.0000 H       1  UNL1        0.0584
     21 H           2.0000   -0.6900    0.0000 H       1  UNL1        0.2100
     22 H           4.8059   -2.3100    0.0000 H       1  UNL1        0.2100
     23 H           6.5380   -0.6900    0.0000 H       1  UNL1        0.2101
     24 H           2.0000    2.3100    0.0000 H       1  UNL1        0.2095
     25 H           6.6210    2.0000    0.0000 H       1  UNL1        0.0525
     26 H           6.0010    2.6200    0.0000 H       1  UNL1        0.0525
     27 H           5.3810    2.0000    0.0000 H       1  UNL1        0.0525
@<TRIPOS>BOND
     1     1     9    1
     2     1    11    1
     3     7     2    1
     4     2    21    1
     5     8     3    1
     6     3    22    1
     7    10     4    1
     8     4    23    1
     9    11     5    1
    10     5    13    1
    11     6    12    1
    12     6    24    1
    13     7     8    1
    14     7     9    1
    15     7    14    1
    16     8    10    1
    17     8    15    1
    18     9    12    1
    19     9    16    1
    20    10    11    1
    21    10    17    1
    22    11    18    1
    23    12    19    1
    24    12    20    1
    25    13    25    1
    26    13    26    1
    27    13    27    1
