@<TRIPOS>MOLECULE
IMPHY001169
 57 60 0 0 0
SMALL
GASTEIGER

@<TRIPOS>ATOM
      1 S           8.0321    0.0794    0.0000 S.O2    1  UNL1        0.0621
      2 O           8.2437   -0.8980    0.0000 O.2     1  UNL1       -0.1528
      3 O           7.8204    1.0567    0.0000 O.2     1  UNL1       -0.1528
      4 O           8.3780   -1.6645    0.0000 O.2     1  UNL1       -0.2742
      5 N           7.0547   -0.1323    0.0000 N.3     1  UNL1       -0.1556
      6 N           4.5274    0.9919    0.0000 N.ar    1  UNL1       -0.3564
      7 N           7.0864   -2.8185    0.0000 N.am    1  UNL1       -0.3280
      8 C           6.3518    0.6364    0.0000 C.3     1  UNL1        0.0731
      9 C           6.7328   -1.1229    0.0000 C.3     1  UNL1        0.1123
     10 C           5.3364    0.4041    0.0000 C.ar    1  UNL1        0.0393
     11 C           5.7123   -1.3317    0.0000 C.3     1  UNL1        0.0004
     12 C           5.0274   -0.5469    0.0000 C.ar    1  UNL1       -0.0155
     13 C           6.6498    1.5910    0.0000 C.3     1  UNL1       -0.0278
     14 C           5.9721    2.3263    0.0000 C.3     1  UNL1       -0.0449
     15 C           4.0274   -0.5469    0.0000 C.ar    1  UNL1        0.0032
     16 C           3.7183    0.4041    0.0000 C.ar    1  UNL1        0.0470
     17 C           7.3991   -1.8687    0.0000 C.2     1  UNL1        0.2297
     18 C           9.0094    0.2911    0.0000 C.ar    1  UNL1        0.1055
     19 C           6.2701    3.2809    0.0000 C.3     1  UNL1       -0.0626
     20 C           4.9964    2.1071    0.0000 C.3     1  UNL1       -0.0626
     21 C           3.3424   -1.3317    0.0000 C.ar    1  UNL1       -0.0523
     22 C           2.7029    0.6364    0.0000 C.ar    1  UNL1       -0.0378
     23 C           2.3219   -1.1229    0.0000 C.ar    1  UNL1       -0.0611
     24 C           2.0000   -0.1323    0.0000 C.ar    1  UNL1       -0.0598
     25 C           9.6814   -0.4495    0.0000 C.ar    1  UNL1       -0.0351
     26 C           9.3148    1.2433    0.0000 C.ar    1  UNL1       -0.0351
     27 C          10.6587   -0.2378    0.0000 C.ar    1  UNL1       -0.0570
     28 C          10.2921    1.4550    0.0000 C.ar    1  UNL1       -0.0570
     29 C          10.9641    0.7144    0.0000 C.ar    1  UNL1       -0.0503
     30 C          11.9414    0.9261    0.0000 C.3     1  UNL1       -0.0397
     31 H           6.9570    0.7711    0.0000 H       1  UNL1        0.0544
     32 H           7.3395   -0.9952    0.0000 H       1  UNL1        0.0579
     33 H           5.1824   -1.6534    0.0000 H       1  UNL1        0.0334
     34 H           5.9387   -1.9089    0.0000 H       1  UNL1        0.0334
     35 H           7.2005    1.3062    0.0000 H       1  UNL1        0.0287
     36 H           7.0258    2.0839    0.0000 H       1  UNL1        0.0287
     37 H           6.5770    2.4622    0.0000 H       1  UNL1        0.0296
     38 H           4.5274    1.6119    0.0000 H       1  UNL1        0.1656
     39 H           6.8619    3.0961    0.0000 H       1  UNL1        0.0232
     40 H           6.4549    3.8727    0.0000 H       1  UNL1        0.0232
     41 H           4.8605    2.7120    0.0000 H       1  UNL1        0.0232
     42 H           4.3915    1.9712    0.0000 H       1  UNL1        0.0232
     43 H           5.1323    1.5022    0.0000 H       1  UNL1        0.0232
     44 H           5.6783    3.4656    0.0000 H       1  UNL1        0.0232
     45 H           3.5408   -1.9191    0.0000 H       1  UNL1        0.0624
     46 H           2.5182    1.2282    0.0000 H       1  UNL1        0.0638
     47 H           1.9088   -1.5853    0.0000 H       1  UNL1        0.0618
     48 H           7.4995   -3.2809    0.0000 H       1  UNL1        0.1450
     49 H           6.4795   -2.9451    0.0000 H       1  UNL1        0.1450
     50 H           1.3940   -0.0011    0.0000 H       1  UNL1        0.0618
     51 H           9.4921   -1.0399    0.0000 H       1  UNL1        0.0637
     52 H           8.8981    1.7024    0.0000 H       1  UNL1        0.0637
     53 H          11.0754   -0.6970    0.0000 H       1  UNL1        0.0621
     54 H          10.4814    2.0454    0.0000 H       1  UNL1        0.0621
     55 H          12.0727    0.3202    0.0000 H       1  UNL1        0.0278
     56 H          12.5474    1.0573    0.0000 H       1  UNL1        0.0278
     57 H          11.8102    1.5320    0.0000 H       1  UNL1        0.0278
@<TRIPOS>BOND
     1     1     2    2
     2     1     3    2
     3     1     5    1
     4     1    18    1
     5     4    17    2
     6     5     8    1
     7     5     9    1
     8     6    10   ar
     9     6    16   ar
    10     6    38    1
    11     7    17   am
    12     7    48    1
    13     7    49    1
    14     8    10    1
    15     8    13    1
    16     8    31    1
    17     9    11    1
    18     9    17    1
    19     9    32    1
    20    10    12   ar
    21    11    12    1
    22    11    33    1
    23    11    34    1
    24    12    15   ar
    25    13    14    1
    26    13    35    1
    27    13    36    1
    28    14    19    1
    29    14    20    1
    30    14    37    1
    31    15    16   ar
    32    15    21   ar
    33    16    22   ar
    34    18    25   ar
    35    18    26   ar
    36    19    39    1
    37    19    40    1
    38    19    44    1
    39    20    41    1
    40    20    42    1
    41    20    43    1
    42    21    23   ar
    43    21    45    1
    44    22    24   ar
    45    22    46    1
    46    23    24   ar
    47    23    47    1
    48    24    50    1
    49    25    27   ar
    50    25    51    1
    51    26    28   ar
    52    26    52    1
    53    27    29   ar
    54    27    53    1
    55    28    29   ar
    56    28    54    1
    57    29    30    1
    58    30    55    1
    59    30    56    1
    60    30    57    1
