@<TRIPOS>MOLECULE
IMPHY009835
 31 30 0 0 0
SMALL
GASTEIGER

@<TRIPOS>ATOM
      1 O           3.7320   -0.8660    0.0000 O.3     1  UNL1       -0.4564
      2 O           2.0000   -0.8660    0.0000 O.2     1  UNL1       -0.2546
      3 C           4.5981   -0.3660    0.0000 C.3     1  UNL1        0.1286
      4 C           5.4641    0.1340    0.0000 C.3     1  UNL1       -0.0060
      5 C           6.3301   -0.3660    0.0000 C.3     1  UNL1       -0.0306
      6 C           5.0981   -1.2320    0.0000 C.3     1  UNL1       -0.0211
      7 C           4.0981    0.5000    0.0000 C.2     1  UNL1       -0.0483
      8 C           7.1962    0.1340    0.0000 C.2     1  UNL1       -0.0851
      9 C           8.0622   -0.3660    0.0000 C.2     1  UNL1       -0.0796
     10 C           4.5981    1.3660    0.0000 C.2     1  UNL1       -0.0989
     11 C           8.9282    0.1340    0.0000 C.3     1  UNL1       -0.0440
     12 C           8.0622   -1.3660    0.0000 C.3     1  UNL1       -0.0440
     13 C           2.8660   -0.3660    0.0000 C.2     1  UNL1        0.2951
     14 H           5.8626    0.6089    0.0000 H       1  UNL1        0.0310
     15 H           5.0656    0.6089    0.0000 H       1  UNL1        0.0310
     16 H           5.9316   -0.8410    0.0000 H       1  UNL1        0.0309
     17 H           6.7287   -0.8410    0.0000 H       1  UNL1        0.0309
     18 H           4.5611   -1.5420    0.0000 H       1  UNL1        0.0271
     19 H           5.4081   -1.7690    0.0000 H       1  UNL1        0.0271
     20 H           5.6350   -0.9221    0.0000 H       1  UNL1        0.0271
     21 H           3.4781    0.5000    0.0000 H       1  UNL1        0.0605
     22 H           7.1962    0.7540    0.0000 H       1  UNL1        0.0571
     23 H           5.2181    1.3660    0.0000 H       1  UNL1        0.0533
     24 H           4.2881    1.9030    0.0000 H       1  UNL1        0.0533
     25 H           9.2382   -0.4030    0.0000 H       1  UNL1        0.0274
     26 H           9.4651    0.4440    0.0000 H       1  UNL1        0.0274
     27 H           8.6182    0.6709    0.0000 H       1  UNL1        0.0274
     28 H           7.4422   -1.3660    0.0000 H       1  UNL1        0.0274
     29 H           8.0622   -1.9860    0.0000 H       1  UNL1        0.0274
     30 H           8.6822   -1.3660    0.0000 H       1  UNL1        0.0274
     31 H           2.8660    0.2540    0.0000 H       1  UNL1        0.1512
@<TRIPOS>BOND
     1     1     3    1
     2     1    13    1
     3     2    13    2
     4     3     4    1
     5     3     6    1
     6     3     7    1
     7     4     5    1
     8     4    14    1
     9     4    15    1
    10     5     8    1
    11     5    16    1
    12     5    17    1
    13     6    18    1
    14     6    19    1
    15     6    20    1
    16     7    10    2
    17     7    21    1
    18     8     9    2
    19     8    22    1
    20     9    11    1
    21     9    12    1
    22    10    23    1
    23    10    24    1
    24    11    25    1
    25    11    26    1
    26    11    27    1
    27    12    28    1
    28    12    29    1
    29    12    30    1
    30    13    31    1
