@<TRIPOS>MOLECULE
IMPHY014779
 37 39 0 0 0
SMALL
GASTEIGER

@<TRIPOS>ATOM
      1 O           3.7230    0.2885    0.0000 O.3     1  UNL1       -0.4599
      2 O           2.0000    0.7206    0.0000 O.2     1  UNL1       -0.2505
      3 O           8.0559    0.2083    0.0000 O.2     1  UNL1       -0.2876
      4 O           5.1318   -2.2859    0.0000 O.3     1  UNL1       -0.3907
      5 C           4.3551    1.7710    0.0000 C.3     1  UNL1        0.0100
      6 C           4.5777    0.7961    0.0000 C.3     1  UNL1        0.1172
      7 C           5.4786    0.3622    0.0000 C.3     1  UNL1        0.0486
      8 C           3.3648    1.8576    0.0000 C.3     1  UNL1        0.0598
      9 C           4.9786    2.5529    0.0000 C.3     1  UNL1       -0.0424
     10 C           6.3796    0.7961    0.0000 C.2     1  UNL1        0.0089
     11 C           5.9786    2.5529    0.0000 C.3     1  UNL1       -0.0309
     12 C           5.6146   -0.6225    0.0000 C.2     1  UNL1       -0.0298
     13 C           6.6021    1.7710    0.0000 C.2     1  UNL1       -0.0651
     14 C           2.9749    0.9432    0.0000 C.2     1  UNL1        0.3106
     15 C           2.8504    2.7151    0.0000 C.3     1  UNL1       -0.0519
     16 C           7.0647    0.0758    0.0000 C.2     1  UNL1        0.1828
     17 C           6.5929   -0.7992    0.0000 C.2     1  UNL1       -0.0126
     18 C           4.8930   -1.3148    0.0000 C.3     1  UNL1        0.0664
     19 C           7.5770    1.9936    0.0000 C.3     1  UNL1       -0.0431
     20 H           4.0200    2.5522    0.0000 H       1  UNL1        0.0345
     21 H           4.6147   -0.0531    0.0000 H       1  UNL1        0.0746
     22 H           4.7916   -0.1383    0.0000 H       1  UNL1        0.0432
     23 H           3.6936    2.3833    0.0000 H       1  UNL1        0.0415
     24 H           5.1166    3.1573    0.0000 H       1  UNL1        0.0272
     25 H           4.4200    2.8219    0.0000 H       1  UNL1        0.0272
     26 H           6.5372    2.8219    0.0000 H       1  UNL1        0.0310
     27 H           5.8407    3.1573    0.0000 H       1  UNL1        0.0310
     28 H           3.3821    3.0340    0.0000 H       1  UNL1        0.0238
     29 H           2.5315    3.2468    0.0000 H       1  UNL1        0.0238
     30 H           2.3188    2.3962    0.0000 H       1  UNL1        0.0238
     31 H           6.8619   -1.3578    0.0000 H       1  UNL1        0.0656
     32 H           4.5480   -0.7997    0.0000 H       1  UNL1        0.0604
     33 H           4.3258   -1.5652    0.0000 H       1  UNL1        0.0604
     34 H           7.7150    1.3891    0.0000 H       1  UNL1        0.0275
     35 H           8.1815    2.1315    0.0000 H       1  UNL1        0.0275
     36 H           7.4391    2.5980    0.0000 H       1  UNL1        0.0275
     37 H           4.6844   -2.7151    0.0000 H       1  UNL1        0.2098
@<TRIPOS>BOND
     1     1     6    1
     2     1    14    1
     3     2    14    2
     4     3    16    2
     5     4    18    1
     6     4    37    1
     7     5     6    1
     8     5     8    1
     9     5     9    1
    10     5    20    1
    11     6     7    1
    12     6    21    1
    13     7    10    1
    14     7    12    1
    15     7    22    1
    16     8    14    1
    17     8    15    1
    18     8    23    1
    19     9    11    1
    20     9    24    1
    21     9    25    1
    22    10    13    2
    23    10    16    1
    24    11    13    1
    25    11    26    1
    26    11    27    1
    27    12    17    2
    28    12    18    1
    29    13    19    1
    30    15    28    1
    31    15    29    1
    32    15    30    1
    33    16    17    1
    34    17    31    1
    35    18    32    1
    36    18    33    1
    37    19    34    1
    38    19    35    1
    39    19    36    1
