@<TRIPOS>MOLECULE
IMPHY008827
 45 49 0 0 0
SMALL
GASTEIGER

@<TRIPOS>ATOM
      1 O           7.0628    0.5566    0.0000 O.3     1  UNL1       -0.2232
      2 O           9.4964    1.2624    0.0000 O.3     1  UNL1       -0.3334
      3 O           4.4323   -0.9436    0.0000 O.3     1  UNL1       -0.2204
      4 O           2.5357   -3.9957    0.0000 O.3     1  UNL1       -0.2232
      5 O          10.7855    2.4191    0.0000 O.3     1  UNL1       -0.3256
      6 O          10.8321   -0.2262    0.0000 O.3     1  UNL1       -0.2149
      7 O          12.7891    0.1862    0.0000 O.3     1  UNL1       -0.2174
      8 O          13.4104    2.0873    0.0000 O.3     1  UNL1       -0.2176
      9 O          11.4069    4.3202    0.0000 O.3     1  UNL1       -0.2176
     10 C           7.0628   -2.4434    0.0000 C.3     1  UNL1        0.0002
     11 C           7.9288   -1.9434    0.0000 C.3     1  UNL1        0.0024
     12 C           6.1968   -1.9434    0.0000 C.3     1  UNL1        0.0050
     13 C           5.2868   -2.4502    0.0000 C.3     1  UNL1        0.0309
     14 C           7.9288   -0.9434    0.0000 C.3     1  UNL1        0.0327
     15 C           5.2787   -3.4918    0.0000 C.3     1  UNL1        0.0048
     16 C           7.0789   -3.4849    0.0000 C.3     1  UNL1        0.0000
     17 C           8.8750   -0.6386    0.0000 C.3     1  UNL1        0.0275
     18 C           6.1968   -0.9434    0.0000 C.3     1  UNL1        0.0330
     19 C           7.0628   -0.4434    0.0000 C.3     1  UNL1        0.1520
     20 C           8.8750   -2.2481    0.0000 C.3     1  UNL1        0.0002
     21 C           6.1808   -4.0126    0.0000 C.3     1  UNL1        0.0002
     22 C           4.3433   -4.0415    0.0000 C.3     1  UNL1        0.0282
     23 C           9.4586   -1.4434    0.0000 C.3     1  UNL1        0.0024
     24 C           4.3599   -1.8861    0.0000 C.3     1  UNL1        0.0051
     25 C           7.7056   -3.2094    0.0000 C.3     1  UNL1        0.0000
     26 C           8.2709   -2.8830    0.0000 C.3     1  UNL1        0.0001
     27 C           5.2945   -1.4503    0.0000 C.3     1  UNL1        0.1819
     28 C           9.1857    0.3119    0.0000 C.3     1  UNL1        0.0957
     29 C           3.4037   -3.4991    0.0000 C.3     1  UNL1        0.1519
     30 C           3.4120   -2.4141    0.0000 C.3     1  UNL1        0.0330
     31 C           4.8467   -4.9056    0.0000 C.3     1  UNL1        0.0025
     32 C           3.8467   -4.9095    0.0000 C.3     1  UNL1        0.0025
     33 C          10.1362    0.0012    0.0000 C.3     1  UNL1        0.0319
     34 C           8.2352    0.6225    0.0000 C.3     1  UNL1        0.0297
     35 C          10.3424   -0.9773    0.0000 C.3     1  UNL1        0.0278
     36 C          10.4749    1.4686    0.0000 C.3     1  UNL1        0.2693
     37 C          11.1427    0.7243    0.0000 C.3     1  UNL1        0.2406
     38 C          11.2930   -1.2880    0.0000 C.2     1  UNL1       -0.0345
     39 C          12.1212    0.9305    0.0000 C.3     1  UNL1        0.2198
     40 C          11.7640    2.6254    0.0000 C.3     1  UNL1        0.1835
     41 C          12.4319    1.8810    0.0000 C.3     1  UNL1        0.2144
     42 C          11.4992   -2.2665    0.0000 C.2     1  UNL1       -0.0478
     43 C          12.0747    3.5759    0.0000 C.3     1  UNL1        0.2142
     44 C          12.4497   -2.5771    0.0000 C.3     1  UNL1        0.0260
     45 C          10.7549   -2.9343    0.0000 C.3     1  UNL1        0.0260
@<TRIPOS>BOND
     1     1    19    1
     2     2    28    1
     3     3    27    1
     4     4    29    1
     5     5    36    1
     6     5    40    1
     7     9    43    1
     8    10    11    1
     9    10    12    1
    10    10    16    1
    11    10    25    1
    12    11    14    1
    13    11    20    1
    14    11    26    1
    15    12    13    1
    16    12    18    1
    17    13    15    1
    18    13    24    1
    19    13    27    1
    20    14    17    1
    21    14    19    1
    22    15    21    1
    23    15    22    1
    24    16    21    1
    25    17    23    1
    26    17    28    1
    27    18    19    1
    28    20    23    1
    29    22    29    1
    30    22    31    1
    31    22    32    1
    32    24    30    1
    33    28    33    1
    34    28    34    1
    35    29    30    1
    36    33    35    1
    37    35    38    1
    38    36     2    1
    39    36    37    1
    40    37     6    1
    41    37    39    1
    42    38    42    2
    43    39     7    1
    44    39    41    1
    45    40    41    1
    46    40    43    1
    47    41     8    1
    48    42    44    1
    49    42    45    1
