@<TRIPOS>MOLECULE
IMPHY003320
 38 43 0 0 0
SMALL
GASTEIGER

@<TRIPOS>ATOM
      1 O           4.9820    2.5564    0.0000 O.3     1  UNL1       -0.4563
      2 O           4.5732   -2.2489    0.0000 O.3     1  UNL1       -0.4520
      3 O           3.1278   -3.0983    0.0000 O.3     1  UNL1       -0.4526
      4 O           8.1944   -0.2137    0.0000 O.3     1  UNL1       -0.4526
      5 O           8.1944   -1.8232    0.0000 O.3     1  UNL1       -0.4526
      6 O           3.3254    3.1977    0.0000 O.2     1  UNL1       -0.2449
      7 C           4.6501   -0.0184    0.0000 C.ar    1  UNL1        0.0007
      8 C           3.7841   -0.5184    0.0000 C.ar    1  UNL1        0.0357
      9 C           4.6501    0.9816    0.0000 C.ar    1  UNL1        0.0121
     10 C           2.9180   -0.0184    0.0000 C.ar    1  UNL1       -0.0128
     11 C           3.7841    1.4816    0.0000 C.ar    1  UNL1        0.0666
     12 C           5.5161   -0.5184    0.0000 C.ar    1  UNL1       -0.0131
     13 C           3.8001   -1.5600    0.0000 C.ar    1  UNL1        0.1745
     14 C           5.3871    1.6486    0.0000 C.3     1  UNL1        0.1192
     15 C           2.9180    0.9816    0.0000 C.ar    1  UNL1       -0.0395
     16 C           2.9021   -2.0877    0.0000 C.ar    1  UNL1        0.1669
     17 C           2.0080   -0.5253    0.0000 C.ar    1  UNL1       -0.0503
     18 C           3.9933    2.4534    0.0000 C.2     1  UNL1        0.3399
     19 C           6.3821   -0.0184    0.0000 C.ar    1  UNL1       -0.0084
     20 C           2.0000   -1.5669    0.0000 C.ar    1  UNL1       -0.0155
     21 C           5.5161   -1.5184    0.0000 C.ar    1  UNL1       -0.0503
     22 C           7.2482   -0.5184    0.0000 C.ar    1  UNL1        0.1668
     23 C           7.2482   -1.5184    0.0000 C.ar    1  UNL1        0.1663
     24 C           4.1585   -3.1977    0.0000 C.3     1  UNL1        0.2333
     25 C           6.3821   -2.0184    0.0000 C.ar    1  UNL1       -0.0156
     26 C           8.7780   -1.0184    0.0000 C.3     1  UNL1        0.2332
     27 H           5.7525    1.1478    0.0000 H       1  UNL1        0.0749
     28 H           5.9236    1.9594    0.0000 H       1  UNL1        0.0749
     29 H           2.3811    1.2916    0.0000 H       1  UNL1        0.0632
     30 H           1.4747   -0.2091    0.0000 H       1  UNL1        0.0625
     31 H           6.3821    0.6016    0.0000 H       1  UNL1        0.0661
     32 H           1.4619   -1.8748    0.0000 H       1  UNL1        0.0655
     33 H           4.9792   -1.8284    0.0000 H       1  UNL1        0.0625
     34 H           4.0344   -3.8051    0.0000 H       1  UNL1        0.1166
     35 H           4.7495   -3.3849    0.0000 H       1  UNL1        0.1166
     36 H           6.3821   -2.6385    0.0000 H       1  UNL1        0.0655
     37 H           9.2389   -1.4332    0.0000 H       1  UNL1        0.1166
     38 H           9.2389   -0.6037    0.0000 H       1  UNL1        0.1166
@<TRIPOS>BOND
     1     1    14    1
     2     1    18    1
     3     2    13    1
     4     2    24    1
     5     3    16    1
     6     3    24    1
     7     4    22    1
     8     4    26    1
     9     5    23    1
    10     5    26    1
    11     6    18    2
    12     7     8   ar
    13     7     9   ar
    14     7    12    1
    15     8    10   ar
    16     8    13   ar
    17     9    11   ar
    18     9    14    1
    19    10    15   ar
    20    10    17   ar
    21    11    15   ar
    22    11    18    1
    23    12    19   ar
    24    12    21   ar
    25    13    16   ar
    26    14    27    1
    27    14    28    1
    28    15    29    1
    29    16    20   ar
    30    17    20   ar
    31    17    30    1
    32    19    22   ar
    33    19    31    1
    34    20    32    1
    35    21    25   ar
    36    21    33    1
    37    22    23   ar
    38    23    25   ar
    39    24    34    1
    40    24    35    1
    41    25    36    1
    42    26    37    1
    43    26    38    1
