@<TRIPOS>MOLECULE
IMPHY017826
 55 56 0 0 0
SMALL
GASTEIGER

@<TRIPOS>ATOM
      1 O           2.4030    1.0468    0.0000 O.3     1  UNL1       -0.3882
      2 C           5.1350    1.0468    0.0000 C.3     1  UNL1       -0.0199
      3 C           5.1350    2.0468    0.0000 C.3     1  UNL1       -0.0298
      4 C           6.0290    2.5815    0.0000 C.3     1  UNL1       -0.0315
      5 C           4.2690    0.5468    0.0000 C.3     1  UNL1        0.0116
      6 C           6.0290    0.5121    0.0000 C.3     1  UNL1       -0.0467
      7 C           4.2690    2.5468    0.0000 C.3     1  UNL1       -0.0466
      8 C           3.4030    1.0468    0.0000 C.3     1  UNL1        0.0700
      9 C           6.9350    2.0676    0.0000 C.3     1  UNL1       -0.0476
     10 C           3.4030    2.0468    0.0000 C.3     1  UNL1       -0.0234
     11 C           6.9350    1.0260    0.0000 C.3     1  UNL1       -0.0520
     12 C           5.1350    0.0468    0.0000 C.3     1  UNL1       -0.0587
     13 C           6.5189    3.4532    0.0000 C.3     1  UNL1       -0.0595
     14 C           5.5190    3.4416    0.0000 C.3     1  UNL1       -0.0595
     15 C           4.2690   -0.4532    0.0000 C.2     1  UNL1       -0.0774
     16 C           2.9030    0.1808    0.0000 C.3     1  UNL1       -0.0355
     17 C           3.4030   -0.9532    0.0000 C.2     1  UNL1       -0.0627
     18 C           3.4030   -1.9532    0.0000 C.2     1  UNL1       -0.0549
     19 C           4.2690   -2.4532    0.0000 C.3     1  UNL1       -0.0400
     20 C           2.5369   -2.4532    0.0000 C.2     1  UNL1       -0.0842
     21 C           2.5369   -3.4532    0.0000 C.3     1  UNL1       -0.0463
     22 H           5.1302    2.6668    0.0000 H       1  UNL1        0.0311
     23 H           3.7320    0.2368    0.0000 H       1  UNL1        0.0376
     24 H           5.6244    0.0423    0.0000 H       1  UNL1        0.0271
     25 H           6.4226    0.0331    0.0000 H       1  UNL1        0.0271
     26 H           4.6675    3.0217    0.0000 H       1  UNL1        0.0269
     27 H           3.8705    3.0217    0.0000 H       1  UNL1        0.0269
     28 H           7.5459    1.9615    0.0000 H       1  UNL1        0.0271
     29 H           7.1441    2.6513    0.0000 H       1  UNL1        0.0271
     30 H           3.1909    2.6294    0.0000 H       1  UNL1        0.0293
     31 H           2.7924    1.9391    0.0000 H       1  UNL1        0.0293
     32 H           7.1441    0.4423    0.0000 H       1  UNL1        0.0266
     33 H           7.5459    1.1321    0.0000 H       1  UNL1        0.0266
     34 H           4.5150    0.0468    0.0000 H       1  UNL1        0.0235
     35 H           5.1350   -0.5732    0.0000 H       1  UNL1        0.0235
     36 H           5.7550    0.0468    0.0000 H       1  UNL1        0.0235
     37 H           7.0594    3.1494    0.0000 H       1  UNL1        0.0235
     38 H           6.8227    3.9937    0.0000 H       1  UNL1        0.0235
     39 H           5.9784    3.7570    0.0000 H       1  UNL1        0.0235
     40 H           6.0523    3.7578    0.0000 H       1  UNL1        0.0235
     41 H           5.2028    3.9750    0.0000 H       1  UNL1        0.0235
     42 H           4.9857    3.1254    0.0000 H       1  UNL1        0.0235
     43 H           4.8059   -0.7632    0.0000 H       1  UNL1        0.0576
     44 H           2.3660    0.4908    0.0000 H       1  UNL1        0.0257
     45 H           2.5930   -0.3562    0.0000 H       1  UNL1        0.0257
     46 H           3.4399   -0.1292    0.0000 H       1  UNL1        0.0257
     47 H           2.0930    1.5837    0.0000 H       1  UNL1        0.2102
     48 H           2.8660   -0.6432    0.0000 H       1  UNL1        0.0617
     49 H           3.9590   -2.9901    0.0000 H       1  UNL1        0.0277
     50 H           4.8059   -2.7632    0.0000 H       1  UNL1        0.0277
     51 H           4.5790   -1.9163    0.0000 H       1  UNL1        0.0277
     52 H           2.0000   -2.1432    0.0000 H       1  UNL1        0.0572
     53 H           1.9169   -3.4532    0.0000 H       1  UNL1        0.0272
     54 H           2.5369   -4.0732    0.0000 H       1  UNL1        0.0272
     55 H           3.1569   -3.4532    0.0000 H       1  UNL1        0.0272
@<TRIPOS>BOND
     1     1     8    1
     2     1    47    1
     3     2     3    1
     4     2     5    1
     5     2     6    1
     6     2    12    1
     7     3     4    1
     8     3     7    1
     9     3    22    1
    10     4     9    1
    11     4    13    1
    12     4    14    1
    13     5     8    1
    14     5    15    1
    15     5    23    1
    16     6    11    1
    17     6    24    1
    18     6    25    1
    19     7    10    1
    20     7    26    1
    21     7    27    1
    22     8    10    1
    23     8    16    1
    24     9    11    1
    25     9    28    1
    26     9    29    1
    27    10    30    1
    28    10    31    1
    29    11    32    1
    30    11    33    1
    31    12    34    1
    32    12    35    1
    33    12    36    1
    34    13    37    1
    35    13    38    1
    36    13    39    1
    37    14    40    1
    38    14    41    1
    39    14    42    1
    40    15    17    2
    41    15    43    1
    42    16    44    1
    43    16    45    1
    44    16    46    1
    45    17    18    1
    46    17    48    1
    47    18    19    1
    48    18    20    2
    49    19    49    1
    50    19    50    1
    51    19    51    1
    52    20    21    1
    53    20    52    1
    54    21    53    1
    55    21    54    1
    56    21    55    1
