@<TRIPOS>MOLECULE
IMPHY005427
 31 32 0 0 0
SMALL
GASTEIGER

@<TRIPOS>ATOM
      1 O           2.8660    0.0103    0.0000 O.3     1  UNL1       -0.4951
      2 N           6.4103   -1.7944    0.0000 N.ar    1  UNL1       -0.3604
      3 N           8.0102    1.9223    0.0000 N.3     1  UNL1       -0.3187
      4 C           6.4103   -0.1850    0.0000 C.ar    1  UNL1       -0.0210
      5 C           5.4641   -0.4897    0.0000 C.ar    1  UNL1        0.0063
      6 C           6.7210    0.7656    0.0000 C.3     1  UNL1       -0.0131
      7 C           5.4641   -1.4897    0.0000 C.ar    1  UNL1        0.0470
      8 C           6.9939   -0.9897    0.0000 C.ar    1  UNL1        0.0059
      9 C           7.6995    0.9718    0.0000 C.3     1  UNL1       -0.0003
     10 C           4.5981    0.0103    0.0000 C.ar    1  UNL1       -0.0105
     11 C           4.5981   -1.9897    0.0000 C.ar    1  UNL1       -0.0343
     12 C           3.7320   -0.4897    0.0000 C.ar    1  UNL1        0.1208
     13 C           3.7320   -1.4897    0.0000 C.ar    1  UNL1       -0.0180
     14 C           8.9887    2.1285    0.0000 C.3     1  UNL1       -0.0158
     15 C           2.0000   -0.4897    0.0000 C.3     1  UNL1        0.0788
     16 H           6.7004    1.3852    0.0000 H       1  UNL1        0.0326
     17 H           6.1072    0.8529    0.0000 H       1  UNL1        0.0326
     18 H           7.7201    0.3521    0.0000 H       1  UNL1        0.0427
     19 H           8.3133    0.8844    0.0000 H       1  UNL1        0.0427
     20 H           7.6139   -0.9897    0.0000 H       1  UNL1        0.0810
     21 H           6.6029   -2.3838    0.0000 H       1  UNL1        0.1653
     22 H           4.5981    0.6303    0.0000 H       1  UNL1        0.0661
     23 H           4.5981   -2.6097    0.0000 H       1  UNL1        0.0639
     24 H           3.1951   -1.7997    0.0000 H       1  UNL1        0.0655
     25 H           7.5961    2.3838    0.0000 H       1  UNL1        0.1216
     26 H           9.1165    1.5218    0.0000 H       1  UNL1        0.0388
     27 H           9.5953    2.2564    0.0000 H       1  UNL1        0.0388
     28 H           8.8608    2.7352    0.0000 H       1  UNL1        0.0388
     29 H           1.6900    0.0472    0.0000 H       1  UNL1        0.0660
     30 H           1.4631   -0.7997    0.0000 H       1  UNL1        0.0660
     31 H           2.3100   -1.0266    0.0000 H       1  UNL1        0.0660
@<TRIPOS>BOND
     1     1    12    1
     2     1    15    1
     3     2     7   ar
     4     2     8   ar
     5     2    21    1
     6     3     9    1
     7     3    14    1
     8     3    25    1
     9     4     5   ar
    10     4     6    1
    11     4     8   ar
    12     5     7   ar
    13     5    10   ar
    14     6     9    1
    15     6    16    1
    16     6    17    1
    17     7    11   ar
    18     8    20    1
    19     9    18    1
    20     9    19    1
    21    10    12   ar
    22    10    22    1
    23    11    13   ar
    24    11    23    1
    25    12    13   ar
    26    13    24    1
    27    14    26    1
    28    14    27    1
    29    14    28    1
    30    15    29    1
    31    15    30    1
    32    15    31    1
