@<TRIPOS>MOLECULE
IMPHY002224
 53 58 0 0 0
SMALL
GASTEIGER

@<TRIPOS>ATOM
      1 O           2.2265   -0.5446    0.0000 O.3     1  UNL1       -0.3886
      2 O           3.9336    2.1760    0.0000 O.2     1  UNL1       -0.2971
      3 O           7.6322   -0.6478    0.0000 O.2     1  UNL1       -0.2964
      4 O           3.4239   -2.0461    0.0000 O.3     1  UNL1       -0.3892
      5 N           5.5778   -0.7814    0.0000 N.3     1  UNL1       -0.3005
      6 C           5.0357   -0.1212    0.0000 C.3     1  UNL1        0.0029
      7 C           6.3252    1.4959    0.0000 C.3     1  UNL1       -0.0045
      8 C           5.4346    0.9368    0.0000 C.3     1  UNL1       -0.0252
      9 C           5.9562   -0.1212    0.0000 C.3     1  UNL1        0.0268
     10 C           6.5301    0.5985    0.0000 C.3     1  UNL1        0.0407
     11 C           4.4618    0.5985    0.0000 C.3     1  UNL1        0.0339
     12 C           3.5516    0.4613    0.0000 C.3     1  UNL1        0.0191
     13 C           7.3164    1.2845    0.0000 C.3     1  UNL1       -0.0358
     14 C           4.6994   -0.9780    0.0000 C.3     1  UNL1       -0.0164
     15 C           5.4959    1.8952    0.0000 C.3     1  UNL1        0.0130
     16 C           7.0000    2.1219    0.0000 C.3     1  UNL1       -0.0243
     17 C           8.0844    0.9532    0.0000 C.3     1  UNL1        0.0389
     18 C           4.6666    1.4959    0.0000 C.2     1  UNL1        0.1382
     19 C           7.4096    0.3272    0.0000 C.2     1  UNL1        0.1455
     20 C           4.0846   -0.5564    0.0000 C.3     1  UNL1        0.0074
     21 C           3.2153   -0.3955    0.0000 C.3     1  UNL1        0.0882
     22 C           3.7892   -1.1152    0.0000 C.3     1  UNL1        0.0822
     23 C           7.8796    1.8506    0.0000 C.2     1  UNL1       -0.0659
     24 C           2.9281    1.2431    0.0000 C.3     1  UNL1       -0.0553
     25 C           6.0805   -1.6458    0.0000 C.3     1  UNL1       -0.0124
     26 C           8.6126    2.5308    0.0000 C.2     1  UNL1       -0.0988
     27 H           5.0658    1.7026    0.0000 H       1  UNL1        0.0313
     28 H           6.5656   -0.7137    0.0000 H       1  UNL1        0.0475
     29 H           6.9178   -0.1579    0.0000 H       1  UNL1        0.0399
     30 H           3.8836    1.2216    0.0000 H       1  UNL1        0.0390
     31 H           7.7318    1.7448    0.0000 H       1  UNL1        0.0278
     32 H           7.2470    0.6684    0.0000 H       1  UNL1        0.0278
     33 H           4.6840   -1.5978    0.0000 H       1  UNL1        0.0297
     34 H           5.3071   -1.1009    0.0000 H       1  UNL1        0.0297
     35 H           5.8825    2.3800    0.0000 H       1  UNL1        0.0347
     36 H           5.1094    2.3800    0.0000 H       1  UNL1        0.0347
     37 H           7.2828    2.6736    0.0000 H       1  UNL1        0.0316
     38 H           6.5058    2.4963    0.0000 H       1  UNL1        0.0316
     39 H           8.8966    0.7027    0.0000 H       1  UNL1        0.0423
     40 H           3.4873   -0.7228    0.0000 H       1  UNL1        0.0433
     41 H           4.1224   -1.1752    0.0000 H       1  UNL1        0.0433
     42 H           2.9888   -0.9727    0.0000 H       1  UNL1        0.0625
     43 H           4.1758   -1.5999    0.0000 H       1  UNL1        0.0619
     44 H           3.4129    1.6297    0.0000 H       1  UNL1        0.0236
     45 H           2.5416    1.7279    0.0000 H       1  UNL1        0.0236
     46 H           2.4434    0.8566    0.0000 H       1  UNL1        0.0236
     47 H           5.5445   -1.9575    0.0000 H       1  UNL1        0.0391
     48 H           6.3922   -2.1818    0.0000 H       1  UNL1        0.0391
     49 H           6.6164   -1.3342    0.0000 H       1  UNL1        0.0391
     50 H           9.2051    2.3481    0.0000 H       1  UNL1        0.0535
     51 H           8.4746    3.1352    0.0000 H       1  UNL1        0.0535
     52 H           2.0000   -1.1217    0.0000 H       1  UNL1        0.2099
     53 H           3.8105   -2.5308    0.0000 H       1  UNL1        0.2099
@<TRIPOS>BOND
     1    21     1    1
     2     1    52    1
     3     2    18    2
     4     3    19    2
     5    22     4    1
     6     4    53    1
     7     5     9    1
     8     5    20    1
     9     5    25    1
    10     6     8    1
    11     6     9    1
    12     6    11    1
    13     6    14    1
    14     7     8    1
    15     7    10    1
    16     7    15    1
    17     7    16    1
    18     8    13    1
    19     8    27    1
    20     9    10    1
    21     9    28    1
    22    10    19    1
    23    10    29    1
    24    11    12    1
    25    11    18    1
    26    11    30    1
    27    12    20    1
    28    12    21    1
    29    12    24    1
    30    13    17    1
    31    13    31    1
    32    13    32    1
    33    14    22    1
    34    14    33    1
    35    14    34    1
    36    15    18    1
    37    15    35    1
    38    15    36    1
    39    16    23    1
    40    16    37    1
    41    16    38    1
    42    17    19    1
    43    17    23    1
    44    17    39    1
    45    20    40    1
    46    20    41    1
    47    21    22    1
    48    21    42    1
    49    22    43    1
    50    23    26    2
    51    24    44    1
    52    24    45    1
    53    24    46    1
    54    25    47    1
    55    25    48    1
    56    25    49    1
    57    26    50    1
    58    26    51    1
