@<TRIPOS>MOLECULE
IMPHY008237
 58 61 0 0 0
SMALL
GASTEIGER

@<TRIPOS>ATOM
      1 O           4.7166    2.6029    0.0000 O.3     1  UNL1       -0.3869
      2 O           8.6500   -2.3961    0.0000 O.3     1  UNL1       -0.4525
      3 O           7.1011   -3.0376    0.0000 O.3     1  UNL1       -0.4489
      4 O           5.4506   -2.0321    0.0000 O.3     1  UNL1       -0.4907
      5 O           4.8576   -1.7865    0.0000 O.3     1  UNL1       -0.4907
      6 O           2.3791    0.4367    0.0000 O.3     1  UNL1       -0.4913
      7 O           3.1630   -1.4557    0.0000 O.3     1  UNL1       -0.4885
      8 C           6.3476    2.2785    0.0000 C.3     1  UNL1       -0.0107
      9 C           7.2714    1.8958    0.0000 C.3     1  UNL1       -0.0346
     10 C           5.4237    1.8958    0.0000 C.3     1  UNL1        0.0838
     11 C           7.6541    0.9719    0.0000 C.3     1  UNL1       -0.0239
     12 C           5.0410    0.9719    0.0000 C.ar    1  UNL1       -0.0039
     13 C           7.2714    0.0481    0.0000 C.ar    1  UNL1       -0.0321
     14 C           6.3476   -0.3346    0.0000 C.ar    1  UNL1        0.0348
     15 C           5.4237    0.0481    0.0000 C.ar    1  UNL1        0.0372
     16 C           6.3476    3.2785    0.0000 C.3     1  UNL1       -0.0595
     17 C           7.9786    2.6029    0.0000 C.3     1  UNL1       -0.0618
     18 C           8.1075   -0.5732    0.0000 C.ar    1  UNL1       -0.0121
     19 C           6.1957   -1.3651    0.0000 C.ar    1  UNL1        0.1734
     20 C           4.0105    1.1238    0.0000 C.ar    1  UNL1       -0.0098
     21 C           4.8024   -0.7880    0.0000 C.ar    1  UNL1        0.1733
     22 C           7.9795   -1.6070    0.0000 C.ar    1  UNL1        0.1702
     23 C           7.0172   -2.0056    0.0000 C.ar    1  UNL1        0.2081
     24 C           3.3700    0.3023    0.0000 C.ar    1  UNL1        0.1655
     25 C           3.7687   -0.6600    0.0000 C.ar    1  UNL1        0.2041
     26 C           8.1082   -3.2785    0.0000 C.3     1  UNL1        0.2334
     27 C           5.6558   -3.0109    0.0000 C.3     1  UNL1        0.0790
     28 C           4.0205   -2.3335    0.0000 C.3     1  UNL1        0.0790
     29 C           2.0000    1.3620    0.0000 C.3     1  UNL1        0.0790
     30 C           2.1710   -1.3290    0.0000 C.3     1  UNL1        0.0791
     31 H           6.8631    2.6230    0.0000 H       1  UNL1        0.0329
     32 H           7.8795    1.7749    0.0000 H       1  UNL1        0.0305
     33 H           4.8156    1.7749    0.0000 H       1  UNL1        0.0646
     34 H           8.1460    0.5945    0.0000 H       1  UNL1        0.0316
     35 H           8.1460    1.3494    0.0000 H       1  UNL1        0.0316
     36 H           6.9676    3.2785    0.0000 H       1  UNL1        0.0233
     37 H           6.3476    3.8985    0.0000 H       1  UNL1        0.0233
     38 H           5.7276    3.2785    0.0000 H       1  UNL1        0.0233
     39 H           8.4170    2.1645    0.0000 H       1  UNL1        0.0233
     40 H           8.4170    3.0413    0.0000 H       1  UNL1        0.0233
     41 H           7.5402    3.0413    0.0000 H       1  UNL1        0.0233
     42 H           8.6775   -0.3294    0.0000 H       1  UNL1        0.0658
     43 H           3.7799    1.6993    0.0000 H       1  UNL1        0.0659
     44 H           4.8771    3.2018    0.0000 H       1  UNL1        0.2102
     45 H           7.9014   -3.8630    0.0000 H       1  UNL1        0.1166
     46 H           8.6677   -3.5456    0.0000 H       1  UNL1        0.1166
     47 H           5.0490   -3.1381    0.0000 H       1  UNL1        0.0660
     48 H           5.7830   -3.6177    0.0000 H       1  UNL1        0.0660
     49 H           6.2626   -2.8837    0.0000 H       1  UNL1        0.0660
     50 H           3.6813   -1.8146    0.0000 H       1  UNL1        0.0660
     51 H           3.5015   -2.6727    0.0000 H       1  UNL1        0.0660
     52 H           4.3597   -2.8525    0.0000 H       1  UNL1        0.0660
     53 H           2.5737    1.5971    0.0000 H       1  UNL1        0.0660
     54 H           1.7650    1.9357    0.0000 H       1  UNL1        0.0660
     55 H           1.4263    1.1270    0.0000 H       1  UNL1        0.0660
     56 H           2.2496   -0.7140    0.0000 H       1  UNL1        0.0660
     57 H           1.5560   -1.2504    0.0000 H       1  UNL1        0.0660
     58 H           2.0925   -1.9440    0.0000 H       1  UNL1        0.0660
@<TRIPOS>BOND
     1    10     1    1
     2     1    44    1
     3     2    22    1
     4     2    26    1
     5     3    23    1
     6     3    26    1
     7     4    19    1
     8     4    27    1
     9     5    21    1
    10     5    28    1
    11     6    24    1
    12     6    29    1
    13     7    25    1
    14     7    30    1
    15     8     9    1
    16     8    10    1
    17     8    16    1
    18     8    31    1
    19     9    11    1
    20     9    17    1
    21     9    32    1
    22    10    12    1
    23    10    33    1
    24    11    13    1
    25    11    34    1
    26    11    35    1
    27    12    15   ar
    28    12    20   ar
    29    13    14   ar
    30    13    18   ar
    31    14    15    1
    32    14    19   ar
    33    15    21   ar
    34    16    36    1
    35    16    37    1
    36    16    38    1
    37    17    39    1
    38    17    40    1
    39    17    41    1
    40    18    22   ar
    41    18    42    1
    42    19    23   ar
    43    20    24   ar
    44    20    43    1
    45    21    25   ar
    46    22    23   ar
    47    24    25   ar
    48    26    45    1
    49    26    46    1
    50    27    47    1
    51    27    48    1
    52    27    49    1
    53    28    50    1
    54    28    51    1
    55    28    52    1
    56    29    53    1
    57    29    54    1
    58    29    55    1
    59    30    56    1
    60    30    57    1
    61    30    58    1
