@<TRIPOS>MOLECULE
IMPHY014167
 30 32 0 0 0
SMALL
GASTEIGER

@<TRIPOS>ATOM
      1 O           8.1962    1.0241    0.0000 O.3     1  UNL1       -0.4914
      2 O           6.4144    2.0346    0.0000 O.3     1  UNL1       -0.5028
      3 O           4.6660    2.0000    0.0000 O.2     1  UNL1       -0.2865
      4 O           4.6660   -2.0000    0.0000 O.2     1  UNL1       -0.2865
      5 O           2.9176   -2.0346    0.0000 O.3     1  UNL1       -0.5060
      6 C           5.5321    0.5000    0.0000 C.ar    1  UNL1        0.0781
      7 C           5.5321   -0.5000    0.0000 C.ar    1  UNL1        0.0370
      8 C           3.8000   -0.5000    0.0000 C.ar    1  UNL1        0.0744
      9 C           3.8000    0.5000    0.0000 C.ar    1  UNL1        0.0367
     10 C           4.6660    1.0000    0.0000 C.2     1  UNL1        0.1982
     11 C           4.6660   -1.0000    0.0000 C.2     1  UNL1        0.1981
     12 C           6.4260    1.0347    0.0000 C.ar    1  UNL1        0.1702
     13 C           6.4260   -1.0347    0.0000 C.ar    1  UNL1       -0.0465
     14 C           2.9061   -1.0347    0.0000 C.ar    1  UNL1        0.1283
     15 C           7.3321    0.5208    0.0000 C.ar    1  UNL1        0.1620
     16 C           2.9061    1.0347    0.0000 C.ar    1  UNL1       -0.0500
     17 C           7.3321   -0.5208    0.0000 C.ar    1  UNL1       -0.0156
     18 C           2.0000   -0.5208    0.0000 C.ar    1  UNL1       -0.0194
     19 C           2.0000    0.5208    0.0000 C.ar    1  UNL1       -0.0576
     20 C           9.0641    0.5275    0.0000 C.3     1  UNL1        0.0790
     21 H           6.4188   -1.6546    0.0000 H       1  UNL1        0.0626
     22 H           2.9132    1.6546    0.0000 H       1  UNL1        0.0625
     23 H           7.8678   -0.8329    0.0000 H       1  UNL1        0.0655
     24 H           1.4643   -0.8329    0.0000 H       1  UNL1        0.0654
     25 H           1.4643    0.8329    0.0000 H       1  UNL1        0.0619
     26 H           6.9478    2.3508    0.0000 H       1  UNL1        0.2923
     27 H           2.3843   -2.3508    0.0000 H       1  UNL1        0.2922
     28 H           8.7562   -0.0106    0.0000 H       1  UNL1        0.0660
     29 H           9.6022    0.2196    0.0000 H       1  UNL1        0.0660
     30 H           9.3720    1.0656    0.0000 H       1  UNL1        0.0660
@<TRIPOS>BOND
     1     1    15    1
     2     1    20    1
     3     2    12    1
     4     2    26    1
     5     3    10    2
     6     4    11    2
     7     5    14    1
     8     5    27    1
     9     6     7   ar
    10     6    10    1
    11     6    12   ar
    12     7    11    1
    13     7    13   ar
    14     8     9   ar
    15     8    11    1
    16     8    14   ar
    17     9    10    1
    18     9    16   ar
    19    12    15   ar
    20    13    17   ar
    21    13    21    1
    22    14    18   ar
    23    15    17   ar
    24    16    19   ar
    25    16    22    1
    26    17    23    1
    27    18    19   ar
    28    18    24    1
    29    19    25    1
    30    20    28    1
    31    20    29    1
    32    20    30    1
