@<TRIPOS>MOLECULE
IMPHY000854
 124 130 0 0 0
SMALL
GASTEIGER

@<TRIPOS>ATOM
      1 O           6.8671   -5.0496    0.0000 O.3     1  UNL1       -0.3418
      2 O           5.0597   -3.9968    0.0000 O.3     1  UNL1       -0.3892
      3 O           8.6209    4.2298    0.0000 O.3     1  UNL1       -0.4318
      4 O           9.3112   -4.3579    0.0000 O.3     1  UNL1       -0.4802
      5 O           7.8180   -5.2355    0.0000 O.2     1  UNL1       -0.2503
      6 O           9.5042    2.7400    0.0000 O.2     1  UNL1       -0.2501
      7 O           5.1350   -5.0496    0.0000 O.3     1  UNL1       -0.3405
      8 O           9.4695    5.7398    0.0000 O.3     1  UNL1       -0.3312
      9 O           6.8671   -7.0496    0.0000 O.3     1  UNL1       -0.3841
     10 O           5.1350   -8.0496    0.0000 O.3     1  UNL1       -0.3864
     11 O           3.4030   -7.0496    0.0000 O.3     1  UNL1       -0.3865
     12 O          10.3644    3.2499    0.0000 O.3     1  UNL1       -0.3829
     13 O          12.0847    4.2699    0.0000 O.3     1  UNL1       -0.3864
     14 O           2.5369   -5.5496    0.0000 O.3     1  UNL1       -0.3924
     15 O          12.0616    6.2698    0.0000 O.3     1  UNL1       -0.3865
     16 O           9.4464    7.7396    0.0000 O.3     1  UNL1       -0.3924
     17 C           7.7681   -0.3494    0.0000 C.3     1  UNL1       -0.0194
     18 C           6.9040   -0.8527    0.0000 C.3     1  UNL1       -0.0256
     19 C           6.8920   -1.8943    0.0000 C.3     1  UNL1       -0.0221
     20 C           7.7643    0.6506    0.0000 C.3     1  UNL1       -0.0051
     21 C           7.7920   -2.4186    0.0000 C.3     1  UNL1       -0.0172
     22 C           8.6801   -0.8527    0.0000 C.3     1  UNL1       -0.0463
     23 C           6.8963    1.1473    0.0000 C.2     1  UNL1       -0.0629
     24 C           8.6921   -1.8943    0.0000 C.3     1  UNL1       -0.0481
     25 C           7.8046   -3.5035    0.0000 C.3     1  UNL1        0.0966
     26 C           6.8762    2.1887    0.0000 C.3     1  UNL1       -0.0031
     27 C           6.0361   -0.3560    0.0000 C.3     1  UNL1       -0.0306
     28 C           5.9421   -2.4186    0.0000 C.3     1  UNL1       -0.0184
     29 C           8.6723    1.1610    0.0000 C.3     1  UNL1       -0.0424
     30 C           7.7722    2.7199    0.0000 C.3     1  UNL1        0.0744
     31 C           8.7522   -0.1719    0.0000 C.3     1  UNL1       -0.0585
     32 C           8.6763    2.2026    0.0000 C.3     1  UNL1       -0.0359
     33 C           6.8671   -4.0496    0.0000 C.3     1  UNL1        0.1033
     34 C           6.0322    0.6440    0.0000 C.2     1  UNL1       -0.0836
     35 C           5.9295   -3.5035    0.0000 C.3     1  UNL1        0.0830
     36 C           6.0279   -1.3909    0.0000 C.3     1  UNL1       -0.0589
     37 C           8.7497    0.4808    0.0000 C.3     1  UNL1       -0.0553
     38 C           5.9223    2.7057    0.0000 C.3     1  UNL1       -0.0403
     39 C           7.7764    3.8049    0.0000 C.3     1  UNL1       -0.0362
     40 C           5.9014    3.7905    0.0000 C.3     1  UNL1       -0.0343
     41 C           6.8347    4.3438    0.0000 C.3     1  UNL1       -0.0468
     42 C           8.8046   -3.4958    0.0000 C.3     1  UNL1       -0.0466
     43 C           8.3113   -4.3656    0.0000 C.2     1  UNL1        0.3136
     44 C           8.6324    3.2299    0.0000 C.2     1  UNL1        0.3161
     45 C           5.3881    4.6487    0.0000 C.3     1  UNL1       -0.0598
     46 C           4.9015    3.7750    0.0000 C.3     1  UNL1       -0.0598
     47 C           6.0010   -5.5496    0.0000 C.3     1  UNL1        0.1884
     48 C           6.0010   -6.5496    0.0000 C.3     1  UNL1        0.1341
     49 C           9.4810    4.7398    0.0000 C.3     1  UNL1        0.2337
     50 C           5.1350   -7.0496    0.0000 C.3     1  UNL1        0.1141
     51 C           4.2690   -5.5496    0.0000 C.3     1  UNL1        0.1130
     52 C           4.2690   -6.5496    0.0000 C.3     1  UNL1        0.1119
     53 C          10.3528    4.2499    0.0000 C.3     1  UNL1        0.1455
     54 C          11.2130    4.7599    0.0000 C.3     1  UNL1        0.1152
     55 C          10.3297    6.2497    0.0000 C.3     1  UNL1        0.1140
     56 C           3.4030   -5.0496    0.0000 C.3     1  UNL1        0.0730
     57 C          11.2014    5.7598    0.0000 C.3     1  UNL1        0.1120
     58 C          10.3181    7.2497    0.0000 C.3     1  UNL1        0.0731
     59 H           7.6385   -1.2805    0.0000 H       1  UNL1        0.0315
     60 H           8.5314   -2.8379    0.0000 H       1  UNL1        0.0317
     61 H           9.2921   -0.9517    0.0000 H       1  UNL1        0.0271
     62 H           8.8824   -0.2666    0.0000 H       1  UNL1        0.0271
     63 H           8.9079   -2.4755    0.0000 H       1  UNL1        0.0269
     64 H           9.3017   -1.7811    0.0000 H       1  UNL1        0.0269
     65 H           6.1502    1.7468    0.0000 H       1  UNL1        0.0357
     66 H           5.4251   -0.2507    0.0000 H       1  UNL1        0.0310
     67 H           5.8263   -0.9395    0.0000 H       1  UNL1        0.0310
     68 H           5.7398   -1.8325    0.0000 H       1  UNL1        0.0296
     69 H           5.3300   -2.5176    0.0000 H       1  UNL1        0.0296
     70 H           8.8791    0.5765    0.0000 H       1  UNL1        0.0274
     71 H           9.2836    1.2647    0.0000 H       1  UNL1        0.0274
     72 H           8.8623   -0.7821    0.0000 H       1  UNL1        0.0235
     73 H           9.3624   -0.0619    0.0000 H       1  UNL1        0.0235
     74 H           8.6422    0.4382    0.0000 H       1  UNL1        0.0235
     75 H           9.2868    2.0942    0.0000 H       1  UNL1        0.0276
     76 H           8.8876    2.7855    0.0000 H       1  UNL1        0.0276
     77 H           7.6040   -4.4732    0.0000 H       1  UNL1        0.0634
     78 H           5.4941    0.9519    0.0000 H       1  UNL1        0.0572
     79 H           5.9246   -4.3535    0.0000 H       1  UNL1        0.0619
     80 H           6.3400   -0.8552    0.0000 H       1  UNL1        0.0235
     81 H           5.4922   -1.0789    0.0000 H       1  UNL1        0.0235
     82 H           5.7158   -1.9267    0.0000 H       1  UNL1        0.0235
     83 H           8.6444   -0.1302    0.0000 H       1  UNL1        0.0238
     84 H           9.3607    0.3755    0.0000 H       1  UNL1        0.0238
     85 H           8.8550    1.0918    0.0000 H       1  UNL1        0.0238
     86 H           5.3095    2.8000    0.0000 H       1  UNL1        0.0276
     87 H           5.7246    2.1181    0.0000 H       1  UNL1        0.0276
     88 H           8.3869    3.6965    0.0000 H       1  UNL1        0.0276
     89 H           7.9877    4.3878    0.0000 H       1  UNL1        0.0276
     90 H           7.2302    4.8213    0.0000 H       1  UNL1        0.0271
     91 H           6.4319    4.8151    0.0000 H       1  UNL1        0.0271
     92 H           8.8094   -4.1157    0.0000 H       1  UNL1        0.0241
     93 H           9.4246   -3.4910    0.0000 H       1  UNL1        0.0241
     94 H           8.7998   -2.8758    0.0000 H       1  UNL1        0.0241
     95 H           5.9202    4.9669    0.0000 H       1  UNL1        0.0235
     96 H           5.0699    5.1808    0.0000 H       1  UNL1        0.0235
     97 H           4.8560    4.3304    0.0000 H       1  UNL1        0.0235
     98 H           4.8920    4.3950    0.0000 H       1  UNL1        0.0235
     99 H           4.2816    3.7655    0.0000 H       1  UNL1        0.0235
    100 H           4.9111    3.1551    0.0000 H       1  UNL1        0.0235
    101 H           4.5251   -3.6826    0.0000 H       1  UNL1        0.2099
    102 H           6.0010   -4.6996    0.0000 H       1  UNL1        0.0938
    103 H           9.6254   -4.8924    0.0000 H       1  UNL1        0.2951
    104 H           6.0010   -7.3996    0.0000 H       1  UNL1        0.0671
    105 H           9.4909    3.8899    0.0000 H       1  UNL1        0.1085
    106 H           4.3989   -7.4746    0.0000 H       1  UNL1        0.0648
    107 H           4.2690   -4.6996    0.0000 H       1  UNL1        0.0647
    108 H           3.5329   -6.1246    0.0000 H       1  UNL1        0.0647
    109 H          11.0938    3.8334    0.0000 H       1  UNL1        0.0683
    110 H           6.8671   -7.6696    0.0000 H       1  UNL1        0.2101
    111 H          11.9441    5.1933    0.0000 H       1  UNL1        0.0648
    112 H           9.5887    6.6662    0.0000 H       1  UNL1        0.0647
    113 H           3.8015   -4.5746    0.0000 H       1  UNL1        0.0584
    114 H           3.0044   -4.5746    0.0000 H       1  UNL1        0.0584
    115 H          11.1916    6.6097    0.0000 H       1  UNL1        0.0647
    116 H           4.5981   -8.3596    0.0000 H       1  UNL1        0.2100
    117 H           3.4030   -7.6696    0.0000 H       1  UNL1        0.2100
    118 H          10.9049    2.9462    0.0000 H       1  UNL1        0.2102
    119 H          10.9299    7.1491    0.0000 H       1  UNL1        0.0584
    120 H          10.5234    7.8347    0.0000 H       1  UNL1        0.0584
    121 H          12.6181    4.5861    0.0000 H       1  UNL1        0.2100
    122 H           2.0000   -5.2396    0.0000 H       1  UNL1        0.2095
    123 H          12.0544    6.8897    0.0000 H       1  UNL1        0.2100
    124 H           9.4392    8.3596    0.0000 H       1  UNL1        0.2095
@<TRIPOS>BOND
     1     1    33    1
     2     1    47    1
     3     2    35    1
     4     2   101    1
     5     3    44    1
     6     3    49    1
     7     4    43    1
     8     4   103    1
     9     5    43    2
    10     6    44    2
    11     7    47    1
    12     7    51    1
    13     8    49    1
    14     8    55    1
    15     9    48    1
    16     9   110    1
    17    10    50    1
    18    10   116    1
    19    11    52    1
    20    11   117    1
    21    12    53    1
    22    12   118    1
    23    13    54    1
    24    13   121    1
    25    14    56    1
    26    14   122    1
    27    15    57    1
    28    15   123    1
    29    16    58    1
    30    16   124    1
    31    17    18    1
    32    17    20    1
    33    17    22    1
    34    17    31    1
    35    18    19    1
    36    18    27    1
    37    18    59    1
    38    19    21    1
    39    19    28    1
    40    19    36    1
    41    20    23    1
    42    20    29    1
    43    20    37    1
    44    21    24    1
    45    21    25    1
    46    21    60    1
    47    22    24    1
    48    22    61    1
    49    22    62    1
    50    23    26    1
    51    23    34    2
    52    24    63    1
    53    24    64    1
    54    25    33    1
    55    25    42    1
    56    25    43    1
    57    26    30    1
    58    26    38    1
    59    26    65    1
    60    27    34    1
    61    27    66    1
    62    27    67    1
    63    28    35    1
    64    28    68    1
    65    28    69    1
    66    29    32    1
    67    29    70    1
    68    29    71    1
    69    30    32    1
    70    30    39    1
    71    30    44    1
    72    31    72    1
    73    31    73    1
    74    31    74    1
    75    32    75    1
    76    32    76    1
    77    33    35    1
    78    33    77    1
    79    34    78    1
    80    35    79    1
    81    36    80    1
    82    36    81    1
    83    36    82    1
    84    37    83    1
    85    37    84    1
    86    37    85    1
    87    38    40    1
    88    38    86    1
    89    38    87    1
    90    39    41    1
    91    39    88    1
    92    39    89    1
    93    40    41    1
    94    40    45    1
    95    40    46    1
    96    41    90    1
    97    41    91    1
    98    42    92    1
    99    42    93    1
   100    42    94    1
   101    45    95    1
   102    45    96    1
   103    45    97    1
   104    46    98    1
   105    46    99    1
   106    46   100    1
   107    47    48    1
   108    47   102    1
   109    48    50    1
   110    48   104    1
   111    49    53    1
   112    49   105    1
   113    50    52    1
   114    50   106    1
   115    51    52    1
   116    51    56    1
   117    51   107    1
   118    52   108    1
   119    53    54    1
   120    53   109    1
   121    54    57    1
   122    54   111    1
   123    55    57    1
   124    55    58    1
   125    55   112    1
   126    56   113    1
   127    56   114    1
   128    57   115    1
   129    58   119    1
   130    58   120    1
