@<TRIPOS>MOLECULE
IMPHY009112
 83 86 0 0 0
SMALL
GASTEIGER

@<TRIPOS>ATOM
      1 O           7.9174   -2.7003    0.0000 O.3     1  UNL1       -0.3837
      2 O          10.1248    0.2443    0.0000 O.3     1  UNL1       -0.3860
      3 O           2.5405   -1.6610    0.0000 O.3     1  UNL1       -0.3892
      4 O           8.8172    2.2498    0.0000 O.3     1  UNL1       -0.3890
      5 O           6.1733   -4.7695    0.0000 O.2     1  UNL1       -0.2924
      6 O           2.5244   -3.7526    0.0000 O.3     1  UNL1       -0.3892
      7 O          12.7312    3.0747    0.0000 O.3     1  UNL1       -0.4588
      8 O          12.3740    4.7695    0.0000 O.2     1  UNL1       -0.2511
      9 C           7.9174   -0.7003    0.0000 C.3     1  UNL1        0.0061
     10 C           7.9174   -1.7003    0.0000 C.3     1  UNL1        0.0934
     11 C           8.8637   -0.3955    0.0000 C.3     1  UNL1       -0.0015
     12 C           6.1854   -1.7003    0.0000 C.3     1  UNL1       -0.0107
     13 C           5.2754   -2.2071    0.0000 C.3     1  UNL1       -0.0132
     14 C           7.0514   -0.2003    0.0000 C.3     1  UNL1       -0.0438
     15 C           7.0514   -2.2003    0.0000 C.2     1  UNL1       -0.0310
     16 C           8.8637   -2.0050    0.0000 C.3     1  UNL1       -0.0192
     17 C           9.4473   -1.2003    0.0000 C.3     1  UNL1       -0.0440
     18 C           6.1854   -0.7003    0.0000 C.3     1  UNL1       -0.0453
     19 C           5.2674   -3.2487    0.0000 C.3     1  UNL1        0.0299
     20 C           9.1743    0.5550    0.0000 C.3     1  UNL1        0.0924
     21 C           7.9174    0.2997    0.0000 C.3     1  UNL1       -0.0563
     22 C           4.3486   -1.6430    0.0000 C.3     1  UNL1       -0.0178
     23 C           7.0675   -3.2418    0.0000 C.2     1  UNL1       -0.0167
     24 C           4.3319   -3.7984    0.0000 C.3     1  UNL1       -0.0141
     25 C           5.2831   -1.2071    0.0000 C.3     1  UNL1       -0.0583
     26 C           6.1694   -3.7695    0.0000 C.2     1  UNL1        0.1598
     27 C           3.4007   -2.1710    0.0000 C.3     1  UNL1        0.0816
     28 C           9.4850    1.5055    0.0000 C.3     1  UNL1        0.0840
     29 C           3.3923   -3.2559    0.0000 C.3     1  UNL1        0.0817
     30 C           8.2238    0.8657    0.0000 C.3     1  UNL1       -0.0334
     31 C          10.4635    1.7117    0.0000 C.3     1  UNL1       -0.0206
     32 C          10.7742    2.6622    0.0000 C.3     1  UNL1       -0.0109
     33 C          11.7527    2.8685    0.0000 C.3     1  UNL1        0.1080
     34 C          11.5464    3.8470    0.0000 C.3     1  UNL1       -0.0251
     35 C          11.9589    1.8900    0.0000 C.3     1  UNL1       -0.0251
     36 C          13.0418    4.0252    0.0000 C.2     1  UNL1        0.3044
     37 C          14.0203    4.2314    0.0000 C.3     1  UNL1        0.0333
     38 H           9.7034   -0.2636    0.0000 H       1  UNL1        0.0336
     39 H           6.9215   -1.2753    0.0000 H       1  UNL1        0.0352
     40 H           7.4500    0.2747    0.0000 H       1  UNL1        0.0272
     41 H           6.6529    0.2747    0.0000 H       1  UNL1        0.0272
     42 H           8.6126   -2.5719    0.0000 H       1  UNL1        0.0296
     43 H           9.4010   -2.3142    0.0000 H       1  UNL1        0.0296
     44 H           9.9081   -1.6150    0.0000 H       1  UNL1        0.0270
     45 H           9.9081   -0.7855    0.0000 H       1  UNL1        0.0270
     46 H           5.9733   -0.1176    0.0000 H       1  UNL1        0.0271
     47 H           5.5748   -0.8079    0.0000 H       1  UNL1        0.0271
     48 H           5.2706   -4.0987    0.0000 H       1  UNL1        0.0387
     49 H           8.5374    0.2997    0.0000 H       1  UNL1        0.0236
     50 H           7.9174    0.9197    0.0000 H       1  UNL1        0.0236
     51 H           7.2974    0.2997    0.0000 H       1  UNL1        0.0236
     52 H           4.7568   -1.1764    0.0000 H       1  UNL1        0.0297
     53 H           3.9586   -1.1610    0.0000 H       1  UNL1        0.0297
     54 H           7.6080   -3.5455    0.0000 H       1  UNL1        0.0653
     55 H           3.9346   -4.2744    0.0000 H       1  UNL1        0.0298
     56 H           4.7329   -4.2713    0.0000 H       1  UNL1        0.0298
     57 H           5.9031   -1.2119    0.0000 H       1  UNL1        0.0235
     58 H           5.2879   -0.5872    0.0000 H       1  UNL1        0.0235
     59 H           4.6631   -1.2024    0.0000 H       1  UNL1        0.0235
     60 H           2.8608   -2.4758    0.0000 H       1  UNL1        0.0619
     61 H           8.4544   -3.0103    0.0000 H       1  UNL1        0.2106
     62 H           8.8783    1.3777    0.0000 H       1  UNL1        0.0622
     63 H           3.3911   -3.8759    0.0000 H       1  UNL1        0.0619
     64 H           8.4164    1.4550    0.0000 H       1  UNL1        0.0258
     65 H           7.6345    1.0583    0.0000 H       1  UNL1        0.0258
     66 H           8.0312    0.2763    0.0000 H       1  UNL1        0.0258
     67 H          10.5863    0.6584    0.0000 H       1  UNL1        0.2103
     68 H          10.4841    1.0921    0.0000 H       1  UNL1        0.0292
     69 H          11.0773    1.6244    0.0000 H       1  UNL1        0.0292
     70 H           2.0000   -1.9648    0.0000 H       1  UNL1        0.2099
     71 H           9.0098    2.8391    0.0000 H       1  UNL1        0.2099
     72 H           2.5220   -4.3726    0.0000 H       1  UNL1        0.2099
     73 H          10.7536    3.2819    0.0000 H       1  UNL1        0.0304
     74 H          10.1603    2.7496    0.0000 H       1  UNL1        0.0304
     75 H          12.1531    3.9748    0.0000 H       1  UNL1        0.0268
     76 H          11.4186    4.4536    0.0000 H       1  UNL1        0.0268
     77 H          10.9398    3.7191    0.0000 H       1  UNL1        0.0268
     78 H          11.3522    1.7621    0.0000 H       1  UNL1        0.0268
     79 H          12.0867    1.2833    0.0000 H       1  UNL1        0.0268
     80 H          12.5656    2.0178    0.0000 H       1  UNL1        0.0268
     81 H          14.1482    3.6248    0.0000 H       1  UNL1        0.0342
     82 H          14.6270    4.3593    0.0000 H       1  UNL1        0.0342
     83 H          13.8925    4.8381    0.0000 H       1  UNL1        0.0342
@<TRIPOS>BOND
     1    10     1    1
     2     1    61    1
     3    20     2    1
     4     2    67    1
     5    27     3    1
     6     3    70    1
     7    28     4    1
     8     4    71    1
     9     5    26    2
    10    29     6    1
    11     6    72    1
    12     7    33    1
    13     7    36    1
    14     8    36    2
    15     9    10    1
    16     9    11    1
    17     9    14    1
    18     9    21    1
    19    10    15    1
    20    10    16    1
    21    11    17    1
    22    11    20    1
    23    11    38    1
    24    12    13    1
    25    12    15    1
    26    12    18    1
    27    12    39    1
    28    13    19    1
    29    13    22    1
    30    13    25    1
    31    14    18    1
    32    14    40    1
    33    14    41    1
    34    15    23    2
    35    16    17    1
    36    16    42    1
    37    16    43    1
    38    17    44    1
    39    17    45    1
    40    18    46    1
    41    18    47    1
    42    19    24    1
    43    19    26    1
    44    19    48    1
    45    20    28    1
    46    20    30    1
    47    21    49    1
    48    21    50    1
    49    21    51    1
    50    22    27    1
    51    22    52    1
    52    22    53    1
    53    23    26    1
    54    23    54    1
    55    24    29    1
    56    24    55    1
    57    24    56    1
    58    25    57    1
    59    25    58    1
    60    25    59    1
    61    27    29    1
    62    27    60    1
    63    28    31    1
    64    28    62    1
    65    29    63    1
    66    30    64    1
    67    30    65    1
    68    30    66    1
    69    31    32    1
    70    31    68    1
    71    31    69    1
    72    32    33    1
    73    32    73    1
    74    32    74    1
    75    33    34    1
    76    33    35    1
    77    34    75    1
    78    34    76    1
    79    34    77    1
    80    35    78    1
    81    35    79    1
    82    35    80    1
    83    36    37    1
    84    37    81    1
    85    37    82    1
    86    37    83    1
