@<TRIPOS>MOLECULE
IMPHY013559
 27 27 0 0 0
SMALL
GASTEIGER

@<TRIPOS>ATOM
      1 O           3.7320    2.7500    0.0000 O.2     1  UNL1       -0.3004
      2 C           2.8660   -1.7500    0.0000 C.3     1  UNL1       -0.0402
      3 C           3.7320   -1.2500    0.0000 C.3     1  UNL1       -0.0465
      4 C           3.7320   -0.2500    0.0000 C.3     1  UNL1       -0.0308
      5 C           2.0000   -1.2500    0.0000 C.3     1  UNL1       -0.0319
      6 C           2.8660    0.2500    0.0000 C.2     1  UNL1       -0.0638
      7 C           2.0000   -0.2500    0.0000 C.2     1  UNL1       -0.0839
      8 C           2.8660    1.2500    0.0000 C.3     1  UNL1        0.0327
      9 C           2.8660   -2.7500    0.0000 C.3     1  UNL1       -0.0621
     10 C           2.0000    1.7500    0.0000 C.3     1  UNL1       -0.0522
     11 C           3.7320    1.7500    0.0000 C.2     1  UNL1        0.1271
     12 H           3.4030   -2.0600    0.0000 H       1  UNL1        0.0301
     13 H           3.9441   -1.8326    0.0000 H       1  UNL1        0.0271
     14 H           4.3426   -1.1423    0.0000 H       1  UNL1        0.0271
     15 H           4.3426   -0.3577    0.0000 H       1  UNL1        0.0310
     16 H           3.9441    0.3326    0.0000 H       1  UNL1        0.0310
     17 H           1.3894   -1.1423    0.0000 H       1  UNL1        0.0310
     18 H           1.7880   -1.8326    0.0000 H       1  UNL1        0.0310
     19 H           1.4631    0.0600    0.0000 H       1  UNL1        0.0572
     20 H           2.8660    1.8700    0.0000 H       1  UNL1        0.0417
     21 H           2.2460   -2.7500    0.0000 H       1  UNL1        0.0233
     22 H           2.8660   -3.3700    0.0000 H       1  UNL1        0.0233
     23 H           3.4860   -2.7500    0.0000 H       1  UNL1        0.0233
     24 H           2.3100    2.2869    0.0000 H       1  UNL1        0.0239
     25 H           1.4631    2.0600    0.0000 H       1  UNL1        0.0239
     26 H           1.6900    1.2131    0.0000 H       1  UNL1        0.0239
     27 H           4.2690    1.4400    0.0000 H       1  UNL1        0.1032
@<TRIPOS>BOND
     1     1    11    2
     2     2     3    1
     3     2     5    1
     4     2     9    1
     5     2    12    1
     6     3     4    1
     7     3    13    1
     8     3    14    1
     9     4     6    1
    10     4    15    1
    11     4    16    1
    12     5     7    1
    13     5    17    1
    14     5    18    1
    15     6     7    2
    16     6     8    1
    17     7    19    1
    18     8    10    1
    19     8    11    1
    20     8    20    1
    21     9    21    1
    22     9    22    1
    23     9    23    1
    24    10    24    1
    25    10    25    1
    26    10    26    1
    27    11    27    1
