@<TRIPOS>MOLECULE
IMPHY012289
 42 44 0 0 0
SMALL
GASTEIGER

@<TRIPOS>ATOM
      1 O           4.0037    2.1353    0.0000 O.3     1  UNL1       -0.3886
      2 C           4.5037   -1.0553    0.0000 C.3     1  UNL1       -0.0289
      3 C           5.3302   -1.6191    0.0000 C.3     1  UNL1       -0.0284
      4 C           5.4047   -0.6214    0.0000 C.3     1  UNL1       -0.0319
      5 C           3.6027   -0.6214    0.0000 C.3     1  UNL1       -0.0294
      6 C           3.3802    0.3535    0.0000 C.3     1  UNL1       -0.0090
      7 C           5.6272    0.3535    0.0000 C.3     1  UNL1       -0.0468
      8 C           2.7480   -1.1291    0.0000 C.3     1  UNL1       -0.0404
      9 C           4.0037    1.1353    0.0000 C.3     1  UNL1        0.0664
     10 C           2.3899    0.4400    0.0000 C.3     1  UNL1       -0.0471
     11 C           5.0037    1.1353    0.0000 C.3     1  UNL1       -0.0237
     12 C           6.3274   -1.6938    0.0000 C.3     1  UNL1       -0.0593
     13 C           4.7668   -2.4453    0.0000 C.3     1  UNL1       -0.0593
     14 C           2.0000   -0.4744    0.0000 C.3     1  UNL1       -0.0498
     15 C           2.6567   -2.1249    0.0000 C.3     1  UNL1       -0.0621
     16 C           3.2219    1.7588    0.0000 C.3     1  UNL1       -0.0358
     17 H           4.0786   -1.7914    0.0000 H       1  UNL1        0.0312
     18 H           6.2452   -0.7480    0.0000 H       1  UNL1        0.0309
     19 H           3.6398   -1.4706    0.0000 H       1  UNL1        0.0310
     20 H           3.0451    1.1347    0.0000 H       1  UNL1        0.0331
     21 H           6.1858    0.0845    0.0000 H       1  UNL1        0.0269
     22 H           6.0138    0.8382    0.0000 H       1  UNL1        0.0269
     23 H           3.2723   -1.4601    0.0000 H       1  UNL1        0.0301
     24 H           2.5085    1.0486    0.0000 H       1  UNL1        0.0269
     25 H           1.7972    0.6219    0.0000 H       1  UNL1        0.0269
     26 H           5.5623    1.4043    0.0000 H       1  UNL1        0.0293
     27 H           4.8657    1.7398    0.0000 H       1  UNL1        0.0293
     28 H           6.2810   -2.3121    0.0000 H       1  UNL1        0.0235
     29 H           6.9456   -1.7402    0.0000 H       1  UNL1        0.0235
     30 H           6.3737   -1.0756    0.0000 H       1  UNL1        0.0235
     31 H           4.2546   -2.0961    0.0000 H       1  UNL1        0.0235
     32 H           4.4176   -2.9576    0.0000 H       1  UNL1        0.0235
     33 H           5.2791   -2.7946    0.0000 H       1  UNL1        0.0235
     34 H           1.4584   -0.1726    0.0000 H       1  UNL1        0.0268
     35 H           1.6430   -0.9813    0.0000 H       1  UNL1        0.0268
     36 H           2.0393   -2.0682    0.0000 H       1  UNL1        0.0233
     37 H           2.6000   -2.7423    0.0000 H       1  UNL1        0.0233
     38 H           3.2741   -2.1815    0.0000 H       1  UNL1        0.0233
     39 H           3.6084    2.2436    0.0000 H       1  UNL1        0.0257
     40 H           2.7371    2.1454    0.0000 H       1  UNL1        0.0257
     41 H           2.8353    1.2741    0.0000 H       1  UNL1        0.0257
     42 H           4.5406    2.4453    0.0000 H       1  UNL1        0.2102
@<TRIPOS>BOND
     1     9     1    1
     2     1    42    1
     3     2     3    1
     4     2     4    1
     5     2     5    1
     6     2    17    1
     7     3     4    1
     8     3    12    1
     9     3    13    1
    10     4     7    1
    11     4    18    1
    12     5     6    1
    13     5     8    1
    14     5    19    1
    15     6     9    1
    16     6    10    1
    17     6    20    1
    18     7    11    1
    19     7    21    1
    20     7    22    1
    21     8    14    1
    22     8    15    1
    23     8    23    1
    24     9    11    1
    25     9    16    1
    26    10    14    1
    27    10    24    1
    28    10    25    1
    29    11    26    1
    30    11    27    1
    31    12    28    1
    32    12    29    1
    33    12    30    1
    34    13    31    1
    35    13    32    1
    36    13    33    1
    37    14    34    1
    38    14    35    1
    39    15    36    1
    40    15    37    1
    41    15    38    1
    42    16    39    1
    43    16    40    1
    44    16    41    1
