@<TRIPOS>MOLECULE
IMPHY006773
 42 42 0 0 0
SMALL
GASTEIGER

@<TRIPOS>ATOM
      1 S           6.0010   -0.4050    0.0000 S.3     1  UNL1       -0.0728
      2 S           7.7331    2.5950    0.0000 S.O2    1  UNL1        0.2709
      3 O           4.2690   -0.4050    0.0000 O.3     1  UNL1       -0.3549
      4 O           4.2690   -3.4050    0.0000 O.3     1  UNL1       -0.3865
      5 O           2.5369   -2.4050    0.0000 O.3     1  UNL1       -0.3865
      6 O           6.0010   -2.4050    0.0000 O.3     1  UNL1       -0.3857
      7 O           2.5369    0.5950    0.0000 O.3     1  UNL1       -0.3924
      8 O           6.8671    2.0950    0.0000 O.2     1  UNL1       -0.2068
      9 O           8.5991    3.0950    0.0000 O.3     1  UNL1       -0.2209
     10 O           7.2331    3.4610    0.0000 O.2     1  UNL1       -0.1060
     11 O           8.2331    1.7290    0.0000 O.2     1  UNL1       -0.1060
     12 N           6.8671    1.0950    0.0000 N.2     1  UNL1       -0.0483
     13 C           4.2690   -2.4050    0.0000 C.3     1  UNL1        0.1126
     14 C           3.4030   -1.9050    0.0000 C.3     1  UNL1        0.1118
     15 C           5.1350   -1.9050    0.0000 C.3     1  UNL1        0.1192
     16 C           3.4030   -0.9050    0.0000 C.3     1  UNL1        0.1115
     17 C           5.1350   -0.9050    0.0000 C.3     1  UNL1        0.1384
     18 C           2.5369   -0.4050    0.0000 C.3     1  UNL1        0.0730
     19 C           6.0010    0.5950    0.0000 C.2     1  UNL1        0.1185
     20 C           5.1350    1.0950    0.0000 C.3     1  UNL1        0.0025
     21 C           5.1350    2.0950    0.0000 C.3     1  UNL1       -0.0290
     22 C           4.2690    2.5950    0.0000 C.2     1  UNL1       -0.0907
     23 C           4.2690    3.5950    0.0000 C.2     1  UNL1       -0.1026
     24 H           4.8059   -2.7150    0.0000 H       1  UNL1        0.0647
     25 H           3.4030   -2.5250    0.0000 H       1  UNL1        0.0647
     26 H           5.6720   -1.5950    0.0000 H       1  UNL1        0.0655
     27 H           3.4030   -0.2850    0.0000 H       1  UNL1        0.0646
     28 H           5.1350   -0.2850    0.0000 H       1  UNL1        0.0743
     29 H           1.9264   -0.2973    0.0000 H       1  UNL1        0.0584
     30 H           2.3249   -0.9876    0.0000 H       1  UNL1        0.0584
     31 H           3.7320   -3.7150    0.0000 H       1  UNL1        0.2100
     32 H           2.0000   -2.0950    0.0000 H       1  UNL1        0.2100
     33 H           6.5380   -2.0950    0.0000 H       1  UNL1        0.2100
     34 H           2.0000    0.9050    0.0000 H       1  UNL1        0.2095
     35 H           4.5244    1.2027    0.0000 H       1  UNL1        0.0337
     36 H           4.9230    0.5124    0.0000 H       1  UNL1        0.0337
     37 H           5.7456    1.9873    0.0000 H       1  UNL1        0.0311
     38 H           5.3471    2.6776    0.0000 H       1  UNL1        0.0311
     39 H           3.7320    2.2850    0.0000 H       1  UNL1        0.0566
     40 H           4.8059    3.9050    0.0000 H       1  UNL1        0.0532
     41 H           3.7320    3.9050    0.0000 H       1  UNL1        0.0532
     42 H           8.5991    3.7150    0.0000 H       1  UNL1        0.2480
@<TRIPOS>BOND
     1    17     1    1
     2     1    19    1
     3     2     8    1
     4     2     9    1
     5     2    10    2
     6     2    11    2
     7     3    16    1
     8     3    17    1
     9    13     4    1
    10     4    31    1
    11    14     5    1
    12     5    32    1
    13    15     6    1
    14     6    33    1
    15     7    18    1
    16     7    34    1
    17     8    12    1
    18     9    42    1
    19    12    19    2
    20    13    14    1
    21    13    15    1
    22    13    24    1
    23    14    16    1
    24    14    25    1
    25    15    17    1
    26    15    26    1
    27    16    18    1
    28    16    27    1
    29    17    28    1
    30    18    29    1
    31    18    30    1
    32    19    20    1
    33    20    21    1
    34    20    35    1
    35    20    36    1
    36    21    22    1
    37    21    37    1
    38    21    38    1
    39    22    23    2
    40    22    39    1
    41    23    40    1
    42    23    41    1
