@<TRIPOS>MOLECULE
IMPHY014405
 63 66 0 0 0
SMALL
GASTEIGER

@<TRIPOS>ATOM
      1 O           6.3301   -1.8625    0.0000 O.3     1  UNL1       -0.3302
      2 O           8.0622   -1.8625    0.0000 O.3     1  UNL1       -0.4569
      3 O           4.5981   -3.8625    0.0000 O.3     1  UNL1       -0.3864
      4 O           6.3301   -4.8625    0.0000 O.3     1  UNL1       -0.3864
      5 O           8.0622   -3.8625    0.0000 O.3     1  UNL1       -0.3829
      6 O           3.7320   -2.3625    0.0000 O.3     1  UNL1       -0.4621
      7 O           9.8382    1.1443    0.0000 O.2     1  UNL1       -0.4544
      8 O           6.3301   -0.8625    0.0000 O.3     1  UNL1       -0.4885
      9 O           6.3301    1.1375    0.0000 O.3     1  UNL1       -0.5027
     10 O           2.8660   -0.8625    0.0000 O.2     1  UNL1       -0.2512
     11 O           7.1744    2.6689    0.0000 O.2     1  UNL1       -0.2869
     12 O          13.3180    4.1725    0.0000 O.3     1  UNL1       -0.4951
     13 C           5.4641   -3.3625    0.0000 C.3     1  UNL1        0.1130
     14 C           6.3301   -3.8625    0.0000 C.3     1  UNL1        0.1152
     15 C           5.4641   -2.3625    0.0000 C.3     1  UNL1        0.1250
     16 C           7.1962   -3.3625    0.0000 C.3     1  UNL1        0.1454
     17 C           7.1962   -2.3625    0.0000 C.3     1  UNL1        0.2310
     18 C           4.5981   -1.8625    0.0000 C.3     1  UNL1        0.1212
     19 C           8.0622   -0.8625    0.0000 C.ar    1  UNL1        0.1726
     20 C           7.1962   -0.3625    0.0000 C.ar    1  UNL1        0.2044
     21 C           8.9282   -0.3625    0.0000 C.ar    1  UNL1        0.0271
     22 C           8.9282    0.6375    0.0000 C.ar    1  UNL1        0.1465
     23 C           8.0622    1.1375    0.0000 C.ar    1  UNL1        0.1091
     24 C           7.1962    0.6375    0.0000 C.ar    1  UNL1        0.1768
     25 C           2.8660   -1.8625    0.0000 C.2     1  UNL1        0.3040
     26 C           8.0461    2.1790    0.0000 C.ar    1  UNL1        0.1967
     27 C           9.8462    2.1859    0.0000 C.ar    1  UNL1        0.1392
     28 C           2.0000   -2.3625    0.0000 C.3     1  UNL1        0.0332
     29 C           8.9442    2.7067    0.0000 C.ar    1  UNL1        0.0288
     30 C          10.7142    2.6826    0.0000 C.ar    1  UNL1        0.0176
     31 C           5.4641   -0.3625    0.0000 C.3     1  UNL1        0.0791
     32 C          10.7180    3.6826    0.0000 C.ar    1  UNL1       -0.0476
     33 C          11.5783    2.1792    0.0000 C.ar    1  UNL1       -0.0476
     34 C          11.5860    4.1792    0.0000 C.ar    1  UNL1       -0.0193
     35 C          12.4462    2.6759    0.0000 C.ar    1  UNL1       -0.0193
     36 C          12.4501    3.6759    0.0000 C.ar    1  UNL1        0.1201
     37 C          13.3219    5.1725    0.0000 C.3     1  UNL1        0.0788
     38 H           5.4641   -3.9825    0.0000 H       1  UNL1        0.0647
     39 H           5.7932   -4.1725    0.0000 H       1  UNL1        0.0648
     40 H           5.4641   -1.7425    0.0000 H       1  UNL1        0.0658
     41 H           7.1962   -3.9825    0.0000 H       1  UNL1        0.0683
     42 H           7.7331   -2.6725    0.0000 H       1  UNL1        0.1084
     43 H           4.9966   -1.3876    0.0000 H       1  UNL1        0.0724
     44 H           4.1996   -1.3876    0.0000 H       1  UNL1        0.0724
     45 H           4.5981   -4.4825    0.0000 H       1  UNL1        0.2100
     46 H           5.7932   -5.1725    0.0000 H       1  UNL1        0.2100
     47 H           8.0622   -4.4825    0.0000 H       1  UNL1        0.2102
     48 H           9.4651   -0.6725    0.0000 H       1  UNL1        0.0692
     49 H           1.6900   -1.8256    0.0000 H       1  UNL1        0.0342
     50 H           1.4631   -2.6725    0.0000 H       1  UNL1        0.0342
     51 H           2.3100   -2.8995    0.0000 H       1  UNL1        0.0342
     52 H           8.9418    3.3267    0.0000 H       1  UNL1        0.0693
     53 H           5.7932    0.8275    0.0000 H       1  UNL1        0.2923
     54 H           5.7741    0.1744    0.0000 H       1  UNL1        0.0660
     55 H           4.9272   -0.0525    0.0000 H       1  UNL1        0.0660
     56 H           5.1541   -0.8995    0.0000 H       1  UNL1        0.0660
     57 H          10.1823    3.9946    0.0000 H       1  UNL1        0.0626
     58 H          11.5759    1.5592    0.0000 H       1  UNL1        0.0626
     59 H          11.5884    4.7992    0.0000 H       1  UNL1        0.0654
     60 H          12.9820    2.3638    0.0000 H       1  UNL1        0.0654
     61 H          13.9419    5.1701    0.0000 H       1  UNL1        0.0660
     62 H          13.3243    5.7925    0.0000 H       1  UNL1        0.0660
     63 H          12.7019    5.1749    0.0000 H       1  UNL1        0.0660
@<TRIPOS>BOND
     1     1    15    1
     2     1    17    1
     3    17     2    1
     4     2    19    1
     5    13     3    1
     6     3    45    1
     7    14     4    1
     8     4    46    1
     9     5    16    1
    10     5    47    1
    11     6    18    1
    12     6    25    1
    13     7    22   ar
    14     7    27   ar
    15     8    20    1
    16     8    31    1
    17     9    24    1
    18     9    53    1
    19    10    25    2
    20    11    26    2
    21    12    36    1
    22    12    37    1
    23    13    14    1
    24    13    15    1
    25    13    38    1
    26    14    16    1
    27    14    39    1
    28    15    18    1
    29    15    40    1
    30    16    17    1
    31    16    41    1
    32    17    42    1
    33    18    43    1
    34    18    44    1
    35    19    20   ar
    36    19    21   ar
    37    20    24   ar
    38    21    22   ar
    39    21    48    1
    40    22    23   ar
    41    23    24   ar
    42    23    26   ar
    43    25    28    1
    44    26    29   ar
    45    27    29   ar
    46    27    30    1
    47    28    49    1
    48    28    50    1
    49    28    51    1
    50    29    52    1
    51    30    32   ar
    52    30    33   ar
    53    31    54    1
    54    31    55    1
    55    31    56    1
    56    32    34   ar
    57    32    57    1
    58    33    35   ar
    59    33    58    1
    60    34    36   ar
    61    34    59    1
    62    35    36   ar
    63    35    60    1
    64    37    61    1
    65    37    62    1
    66    37    63    1
