@<TRIPOS>MOLECULE
IMPHY010717
 30 30 0 0 0
SMALL
GASTEIGER

@<TRIPOS>ATOM
      1 O           4.5981   -0.0950    0.0000 O.3     1  UNL1       -0.2866
      2 O           6.3301   -3.0950    0.0000 O.3     1  UNL1       -0.2834
      3 O           8.0622   -2.0950    0.0000 O.3     1  UNL1       -0.4652
      4 O           8.0622   -0.0950    0.0000 O.3     1  UNL1       -0.2830
      5 O           2.0000   -6.5950    0.0000 O.co2   1  UNL1       -0.2457
      6 O           3.7321   -6.5950    0.0000 O.co2   1  UNL1       -0.2457
      7 O           5.4641    1.4050    0.0000 O.2     1  UNL1       -0.2864
      8 O           8.0622    6.9050    0.0000 O.co2   1  UNL1       -0.2405
      9 O           7.1962    5.4050    0.0000 O.co2   1  UNL1       -0.2405
     10 C           4.5981   -3.0950    0.0000 C.3     1  UNL1        0.0049
     11 C           3.7321   -3.5950    0.0000 C.3     1  UNL1        0.0009
     12 C           4.5981   -2.0950    0.0000 C.3     1  UNL1        0.0330
     13 C           3.7321   -4.5950    0.0000 C.3     1  UNL1        0.0118
     14 C           5.4641   -1.5950    0.0000 C.ar    1  UNL1        0.0590
     15 C           2.8660   -5.0950    0.0000 C.3     1  UNL1        0.1141
     16 C           5.4641   -0.5950    0.0000 C.ar    1  UNL1        0.2011
     17 C           6.3301   -2.0950    0.0000 C.ar    1  UNL1        0.2316
     18 C           6.3301   -0.0950    0.0000 C.ar    1  UNL1        0.1196
     19 C           7.1962   -1.5950    0.0000 C.ar    1  UNL1        0.2161
     20 C           7.1962   -0.5950    0.0000 C.ar    1  UNL1        0.2386
     21 C           2.8660   -6.0950    0.0000 C.2     1  UNL1        0.3649
     22 C           6.3301    0.9050    0.0000 C.2     1  UNL1        0.2020
     23 C           7.1962    1.4050    0.0000 C.2     1  UNL1        0.0422
     24 C           8.0622   -3.0950    0.0000 C.3     1  UNL1        0.2528
     25 C           7.1962    2.4050    0.0000 C.2     1  UNL1        0.0033
     26 C           8.0622    2.9050    0.0000 C.2     1  UNL1        0.0001
     27 C           8.0622    3.9050    0.0000 C.2     1  UNL1        0.0002
     28 C           8.9282    4.4050    0.0000 C.2     1  UNL1        0.0068
     29 C           8.9282    5.4050    0.0000 C.2     1  UNL1        0.0861
     30 C           8.0622    5.9050    0.0000 C.2     1  UNL1        0.3880
@<TRIPOS>BOND
     1     1    16    1
     2     2    17    1
     3     3    19    1
     4     3    24    1
     5     4    20    1
     6     5    21   ar
     7     6    21   ar
     8     7    22    2
     9     8    30   ar
    10     9    30   ar
    11    10    11    1
    12    10    12    1
    13    11    13    1
    14    12    14    1
    15    13    15    1
    16    14    16   ar
    17    14    17   ar
    18    15    21    1
    19    16    18   ar
    20    17    19   ar
    21    18    20   ar
    22    18    22    1
    23    19    20   ar
    24    22    23    1
    25    23    25    2
    26    25    26    1
    27    26    27    2
    28    27    28    1
    29    28    29    2
    30    29    30    1
