@<TRIPOS>MOLECULE
IMPHY012933
 79 83 0 0 0
SMALL
GASTEIGER

@<TRIPOS>ATOM
      1 O           5.6690   -2.3845    0.0000 O.3     1  UNL1       -0.3635
      2 O           4.4206   -2.5531    0.0000 O.3     1  UNL1       -0.4607
      3 O           2.9258    1.5039    0.0000 O.3     1  UNL1       -0.3372
      4 O           7.9011   -1.5185    0.0000 O.3     1  UNL1       -0.4525
      5 O           7.9011    0.4815    0.0000 O.3     1  UNL1       -0.3880
      6 O           6.1690   -2.5185    0.0000 O.3     1  UNL1       -0.4640
      7 O           2.0000    3.1600    0.0000 O.2     1  UNL1       -0.4708
      8 O           2.6887   -2.5731    0.0000 O.2     1  UNL1       -0.2512
      9 O           8.7671   -0.0185    0.0000 O.2     1  UNL1       -0.2453
     10 O           5.3030   -4.0185    0.0000 O.2     1  UNL1       -0.2512
     11 C           5.3030   -1.0185    0.0000 C.3     1  UNL1        0.0798
     12 C           5.3030   -0.0185    0.0000 C.3     1  UNL1       -0.0155
     13 C           6.1690   -1.5185    0.0000 C.3     1  UNL1        0.1441
     14 C           4.4090    0.5162    0.0000 C.3     1  UNL1        0.0007
     15 C           4.4090   -1.5532    0.0000 C.3     1  UNL1        0.1151
     16 C           7.0350   -1.0185    0.0000 C.3     1  UNL1        0.1607
     17 C           3.5030    0.0023    0.0000 C.3     1  UNL1       -0.0325
     18 C           6.1690    0.4815    0.0000 C.3     1  UNL1       -0.0190
     19 C           6.6690   -2.3845    0.0000 C.3     1  UNL1        0.0820
     20 C           3.5030   -1.0393    0.0000 C.3     1  UNL1       -0.0117
     21 C           7.0350   -0.0185    0.0000 C.3     1  UNL1        0.0952
     22 C           3.9191    1.3879    0.0000 C.3     1  UNL1        0.0693
     23 C           5.3030   -2.0185    0.0000 C.3     1  UNL1        0.1046
     24 C           4.9190    1.3763    0.0000 C.3     1  UNL1       -0.0567
     25 C           4.3364    2.2967    0.0000 C.3     1  UNL1       -0.0138
     26 C           2.6389    0.5056    0.0000 C.3     1  UNL1       -0.0617
     27 C           3.6010    2.9744    0.0000 C.3     1  UNL1        0.0451
     28 C           2.7292    2.4844    0.0000 C.3     1  UNL1        0.2075
     29 C           3.4030    3.9485    0.0000 C.2     1  UNL1       -0.0405
     30 C           3.5604   -3.0631    0.0000 C.2     1  UNL1        0.3042
     31 C           8.7671   -1.0185    0.0000 C.2     1  UNL1        0.3350
     32 C           6.1690   -3.5185    0.0000 C.2     1  UNL1        0.3040
     33 C           2.4156    4.0630    0.0000 C.2     1  UNL1        0.0844
     34 C           3.5720   -4.0630    0.0000 C.3     1  UNL1        0.0332
     35 C           9.6331   -1.5185    0.0000 C.2     1  UNL1        0.0293
     36 C           7.0350   -4.0185    0.0000 C.3     1  UNL1        0.0332
     37 C           9.6331   -2.5185    0.0000 C.3     1  UNL1       -0.0333
     38 C          10.4991   -1.0185    0.0000 C.2     1  UNL1       -0.0774
     39 C          11.3652   -1.5185    0.0000 C.3     1  UNL1       -0.0461
     40 H           5.3095    0.8315    0.0000 H       1  UNL1        0.0316
     41 H           3.8751   -1.8683    0.0000 H       1  UNL1        0.0742
     42 H           3.5066    0.6223    0.0000 H       1  UNL1        0.0305
     43 H           7.0350   -1.6385    0.0000 H       1  UNL1        0.0791
     44 H           6.5675    0.9564    0.0000 H       1  UNL1        0.0294
     45 H           5.7705    0.9564    0.0000 H       1  UNL1        0.0294
     46 H           6.7767   -2.9951    0.0000 H       1  UNL1        0.0590
     47 H           7.2516   -2.1725    0.0000 H       1  UNL1        0.0590
     48 H           2.8921   -0.9332    0.0000 H       1  UNL1        0.0304
     49 H           3.2939   -1.6230    0.0000 H       1  UNL1        0.0304
     50 H           7.0350    0.6015    0.0000 H       1  UNL1        0.0631
     51 H           3.5754    0.8719    0.0000 H       1  UNL1        0.0603
     52 H           4.6924   -1.9108    0.0000 H       1  UNL1        0.0705
     53 H           5.0909   -2.6011    0.0000 H       1  UNL1        0.0705
     54 H           5.4523    1.0602    0.0000 H       1  UNL1        0.0236
     55 H           5.2352    1.9097    0.0000 H       1  UNL1        0.0236
     56 H           4.3857    1.6925    0.0000 H       1  UNL1        0.0236
     57 H           4.8697    1.9805    0.0000 H       1  UNL1        0.0298
     58 H           4.7066    2.7940    0.0000 H       1  UNL1        0.0298
     59 H           2.9510    1.0414    0.0000 H       1  UNL1        0.0233
     60 H           2.1031    0.8177    0.0000 H       1  UNL1        0.0233
     61 H           2.3268   -0.0301    0.0000 H       1  UNL1        0.0233
     62 H           4.3414    3.3918    0.0000 H       1  UNL1        0.0405
     63 H           1.9877    2.0689    0.0000 H       1  UNL1        0.1061
     64 H           7.9011    1.1015    0.0000 H       1  UNL1        0.2099
     65 H           3.8224    4.4052    0.0000 H       1  UNL1        0.0607
     66 H           2.1118    4.6035    0.0000 H       1  UNL1        0.1021
     67 H           2.9520   -4.0702    0.0000 H       1  UNL1        0.0342
     68 H           3.5792   -4.6830    0.0000 H       1  UNL1        0.0342
     69 H           4.1919   -4.0559    0.0000 H       1  UNL1        0.0342
     70 H           6.7250   -4.5554    0.0000 H       1  UNL1        0.0342
     71 H           7.5720   -4.3285    0.0000 H       1  UNL1        0.0342
     72 H           7.3450   -3.4816    0.0000 H       1  UNL1        0.0342
     73 H           9.0131   -2.5185    0.0000 H       1  UNL1        0.0280
     74 H           9.6331   -3.1385    0.0000 H       1  UNL1        0.0280
     75 H          10.2531   -2.5185    0.0000 H       1  UNL1        0.0280
     76 H          10.4991   -0.3985    0.0000 H       1  UNL1        0.0574
     77 H          11.0552   -2.0554    0.0000 H       1  UNL1        0.0272
     78 H          11.9021   -1.8285    0.0000 H       1  UNL1        0.0272
     79 H          11.6752   -0.9816    0.0000 H       1  UNL1        0.0272
@<TRIPOS>BOND
     1     1    13    1
     2     1    19    1
     3    15     2    1
     4     2    30    1
     5     3    22    1
     6     3    28    1
     7    16     4    1
     8     4    31    1
     9    21     5    1
    10     5    64    1
    11     6    23    1
    12     6    32    1
    13     7    28    1
    14     7    33    1
    15     8    30    2
    16     9    31    2
    17    10    32    2
    18    11    12    1
    19    11    13    1
    20    11    15    1
    21    11    23    1
    22    12    14    1
    23    12    18    1
    24    12    40    1
    25    13    16    1
    26    13    19    1
    27    14    17    1
    28    14    22    1
    29    14    24    1
    30    15    20    1
    31    15    41    1
    32    16    21    1
    33    16    43    1
    34    17    20    1
    35    17    26    1
    36    17    42    1
    37    18    21    1
    38    18    44    1
    39    18    45    1
    40    19    46    1
    41    19    47    1
    42    20    48    1
    43    20    49    1
    44    21    50    1
    45    22    25    1
    46    22    51    1
    47    23    52    1
    48    23    53    1
    49    24    54    1
    50    24    55    1
    51    24    56    1
    52    25    27    1
    53    25    57    1
    54    25    58    1
    55    26    59    1
    56    26    60    1
    57    26    61    1
    58    27    28    1
    59    27    29    1
    60    27    62    1
    61    28    63    1
    62    29    33    2
    63    29    65    1
    64    30    34    1
    65    31    35    1
    66    32    36    1
    67    33    66    1
    68    34    67    1
    69    34    68    1
    70    34    69    1
    71    35    37    1
    72    35    38    2
    73    36    70    1
    74    36    71    1
    75    36    72    1
    76    37    73    1
    77    37    74    1
    78    37    75    1
    79    38    39    1
    80    38    76    1
    81    39    77    1
    82    39    78    1
    83    39    79    1
