@<TRIPOS>MOLECULE
IMPHY000549
 16 15 0 0 0
SMALL
GASTEIGER

@<TRIPOS>ATOM
      1 O           4.5981    0.7500    0.0000 O.3     1  UNL1       -0.3548
      2 O           2.8660    0.7500    0.0000 O.3     1  UNL1       -0.3548
      3 C           3.7320    0.2500    0.0000 C.3     1  UNL1        0.1556
      4 C           3.7320   -0.7500    0.0000 C.3     1  UNL1       -0.0136
      5 C           5.4641    0.2500    0.0000 C.3     1  UNL1        0.0394
      6 C           2.0000    0.2500    0.0000 C.3     1  UNL1        0.0394
      7 H           3.7320    0.8700    0.0000 H       1  UNL1        0.0906
      8 H           3.1120   -0.7500    0.0000 H       1  UNL1        0.0278
      9 H           3.7320   -1.3700    0.0000 H       1  UNL1        0.0278
     10 H           4.3520   -0.7500    0.0000 H       1  UNL1        0.0278
     11 H           5.1541   -0.2869    0.0000 H       1  UNL1        0.0524
     12 H           6.0010   -0.0600    0.0000 H       1  UNL1        0.0524
     13 H           5.7741    0.7869    0.0000 H       1  UNL1        0.0524
     14 H           1.6900    0.7869    0.0000 H       1  UNL1        0.0524
     15 H           1.4631   -0.0600    0.0000 H       1  UNL1        0.0524
     16 H           2.3100   -0.2869    0.0000 H       1  UNL1        0.0524
@<TRIPOS>BOND
     1     1     3    1
     2     1     5    1
     3     2     3    1
     4     2     6    1
     5     3     4    1
     6     3     7    1
     7     4     8    1
     8     4     9    1
     9     4    10    1
    10     5    11    1
    11     5    12    1
    12     5    13    1
    13     6    14    1
    14     6    15    1
    15     6    16    1
