@<TRIPOS>MOLECULE
IMPHY008986
 26 31 0 0 0
SMALL
GASTEIGER

@<TRIPOS>ATOM
      1 O           5.4551   -1.7181    0.0000 O.3     1  UNL1       -0.4345
      2 O           4.0098   -2.5675    0.0000 O.3     1  UNL1       -0.4315
      3 O           2.0140   -1.5328    0.0000 O.3     1  UNL1       -0.4686
      4 O           8.3177    1.8505    0.0000 O.3     1  UNL1       -0.4346
      5 O           8.3177    0.1741    0.0000 O.3     1  UNL1       -0.4346
      6 N           2.9061    2.0470    0.0000 N.3     1  UNL1       -0.2946
      7 C           3.8000    1.5123    0.0000 C.3     1  UNL1        0.0811
      8 C           3.8000    0.5123    0.0000 C.ar    1  UNL1       -0.0056
      9 C           4.6660    2.0123    0.0000 C.3     1  UNL1        0.0467
     10 C           4.6660    0.0123    0.0000 C.ar    1  UNL1        0.0342
     11 C           2.8900    0.0055    0.0000 C.ar    1  UNL1        0.0137
     12 C           2.0000    0.4915    0.0000 C.3     1  UNL1        0.0463
     13 C           5.5321    1.5123    0.0000 C.ar    1  UNL1       -0.0172
     14 C           5.5321    0.5123    0.0000 C.ar    1  UNL1        0.0021
     15 C           2.0000    1.5331    0.0000 C.3     1  UNL1        0.0736
     16 C           4.6821   -1.0292    0.0000 C.ar    1  UNL1        0.1791
     17 C           2.8820   -1.0361    0.0000 C.ar    1  UNL1        0.1713
     18 C           3.7841   -1.5570    0.0000 C.ar    1  UNL1        0.2097
     19 C           6.4260    2.0470    0.0000 C.ar    1  UNL1        0.0360
     20 C           6.4260   -0.0224    0.0000 C.ar    1  UNL1        0.0400
     21 C           7.3321    1.5331    0.0000 C.ar    1  UNL1        0.1761
     22 C           7.3321    0.4915    0.0000 C.ar    1  UNL1        0.1764
     23 C           5.0404   -2.6669    0.0000 C.3     1  UNL1        0.4295
     24 C           8.9256    1.0123    0.0000 C.3     1  UNL1        0.4294
     25 C           2.0102   -2.5328    0.0000 C.3     1  UNL1        0.2526
     26 H           2.9132    2.6669    0.0000 H       1  UNL1        0.1235
@<TRIPOS>BOND
     1     1    16    1
     2     1    23    1
     3     2    18    1
     4     2    23    1
     5     3    17    1
     6     3    25    1
     7     4    21    1
     8     4    24    1
     9     5    22    1
    10     5    24    1
    11     6     7    1
    12     6    15    1
    13     6    26    1
    14     7     8    1
    15     7     9    1
    16     8    10   ar
    17     8    11   ar
    18     9    13    1
    19    10    14    1
    20    10    16   ar
    21    11    12    1
    22    11    17   ar
    23    12    15    1
    24    13    14   ar
    25    13    19   ar
    26    14    20   ar
    27    16    18   ar
    28    17    18   ar
    29    19    21   ar
    30    20    22   ar
    31    21    22   ar
