@<TRIPOS>MOLECULE
IMPHY013219
 74 79 0 0 0
SMALL
GASTEIGER

@<TRIPOS>ATOM
      1 O           2.0000    2.5775    0.0000 O.3     1  UNL1       -0.3649
      2 O           2.8665    4.0775    0.0000 O.3     1  UNL1       -0.3846
      3 O           4.3015   -2.4138    0.0000 O.3     1  UNL1       -0.3849
      4 O           6.3688    3.0744    0.0000 O.2     1  UNL1       -0.2920
      5 O           6.6931   -2.3025    0.0000 O.3     1  UNL1       -0.4582
      6 O           8.3352   -2.8532    0.0000 O.2     1  UNL1       -0.2505
      7 C           3.7326    1.5775    0.0000 C.3     1  UNL1       -0.0050
      8 C           3.7165    0.5360    0.0000 C.3     1  UNL1       -0.0297
      9 C           4.5986    2.0775    0.0000 C.3     1  UNL1       -0.0203
     10 C           4.6145    0.0083    0.0000 C.3     1  UNL1       -0.0233
     11 C           2.8665    2.0775    0.0000 C.3     1  UNL1        0.0914
     12 C           2.8665    3.0775    0.0000 C.3     1  UNL1        0.1153
     13 C           4.5986    3.0775    0.0000 C.3     1  UNL1        0.0647
     14 C           3.7326    3.5775    0.0000 C.3     1  UNL1        0.1104
     15 C           4.3888   -1.0023    0.0000 C.3     1  UNL1       -0.0032
     16 C           5.5086    1.5707    0.0000 C.3     1  UNL1       -0.0484
     17 C           5.5166    0.5291    0.0000 C.3     1  UNL1       -0.0467
     18 C           2.9435   -0.1529    0.0000 C.3     1  UNL1       -0.0490
     19 C           3.3582   -1.1017    0.0000 C.3     1  UNL1       -0.0467
     20 C           5.0509   -1.7517    0.0000 C.3     1  UNL1        0.1033
     21 C           5.4767   -0.4984    0.0000 C.3     1  UNL1       -0.0590
     22 C           3.7165    4.6190    0.0000 C.3     1  UNL1       -0.0019
     23 C           5.4646    2.5775    0.0000 C.3     1  UNL1       -0.0495
     24 C           5.5086    3.5844    0.0000 C.2     1  UNL1        0.1647
     25 C           5.7130   -2.5012    0.0000 C.3     1  UNL1        0.1318
     26 C           4.6145    5.1468    0.0000 C.2     1  UNL1       -0.0779
     27 C           5.5166    4.6260    0.0000 C.2     1  UNL1       -0.0224
     28 C           5.8003   -1.0896    0.0000 C.3     1  UNL1       -0.0323
     29 C           5.3950   -3.4493    0.0000 C.3     1  UNL1       -0.0096
     30 C           6.0571   -4.1987    0.0000 C.3     1  UNL1       -0.0278
     31 C           7.0372   -4.0000    0.0000 C.3     1  UNL1        0.0563
     32 C           7.3552   -3.0519    0.0000 C.2     1  UNL1        0.3105
     33 C           5.7391   -5.1468    0.0000 C.3     1  UNL1       -0.0616
     34 C           7.6993   -4.7494    0.0000 C.3     1  UNL1       -0.0520
     35 H           3.1932    1.2717    0.0000 H       1  UNL1        0.0332
     36 H           3.1527    0.7940    0.0000 H       1  UNL1        0.0310
     37 H           5.1331    2.3916    0.0000 H       1  UNL1        0.0315
     38 H           2.5566    1.5406    0.0000 H       1  UNL1        0.0626
     39 H           2.5566    3.6145    0.0000 H       1  UNL1        0.0651
     40 H           4.1614   -1.5791    0.0000 H       1  UNL1        0.0335
     41 H           6.1202    1.4693    0.0000 H       1  UNL1        0.0268
     42 H           5.7131    2.1560    0.0000 H       1  UNL1        0.0268
     43 H           5.7302   -0.0530    0.0000 H       1  UNL1        0.0271
     44 H           6.1266    0.6399    0.0000 H       1  UNL1        0.0271
     45 H           2.5819    0.3508    0.0000 H       1  UNL1        0.0268
     46 H           2.4046   -0.4595    0.0000 H       1  UNL1        0.0268
     47 H           2.7671   -1.2889    0.0000 H       1  UNL1        0.0269
     48 H           3.4822   -1.7092    0.0000 H       1  UNL1        0.0269
     49 H           5.1626   -1.0329    0.0000 H       1  UNL1        0.0235
     50 H           6.0112   -0.8125    0.0000 H       1  UNL1        0.0235
     51 H           5.7908    0.0361    0.0000 H       1  UNL1        0.0235
     52 H           3.4985    5.1994    0.0000 H       1  UNL1        0.0336
     53 H           3.1074    4.5035    0.0000 H       1  UNL1        0.0336
     54 H           5.1546    2.0406    0.0000 H       1  UNL1        0.0240
     55 H           6.0016    2.2675    0.0000 H       1  UNL1        0.0240
     56 H           5.7746    3.1145    0.0000 H       1  UNL1        0.0240
     57 H           2.8665    4.6975    0.0000 H       1  UNL1        0.2103
     58 H           5.9102   -1.9133    0.0000 H       1  UNL1        0.0763
     59 H           4.6122    5.7668    0.0000 H       1  UNL1        0.0574
     60 H           6.0548    4.9339    0.0000 H       1  UNL1        0.0649
     61 H           6.2108   -1.5543    0.0000 H       1  UNL1        0.0259
     62 H           6.2650   -0.6792    0.0000 H       1  UNL1        0.0259
     63 H           5.3898   -0.6250    0.0000 H       1  UNL1        0.0259
     64 H           3.7137   -2.2167    0.0000 H       1  UNL1        0.2103
     65 H           4.8504   -3.1530    0.0000 H       1  UNL1        0.0305
     66 H           5.0087   -3.9342    0.0000 H       1  UNL1        0.0305
     67 H           5.4495   -4.3219    0.0000 H       1  UNL1        0.0307
     68 H           6.8400   -4.5878    0.0000 H       1  UNL1        0.0413
     69 H           5.1513   -4.9496    0.0000 H       1  UNL1        0.0233
     70 H           5.5420   -5.7346    0.0000 H       1  UNL1        0.0233
     71 H           6.3270   -5.3439    0.0000 H       1  UNL1        0.0233
     72 H           7.2346   -5.1599    0.0000 H       1  UNL1        0.0238
     73 H           8.1098   -5.2141    0.0000 H       1  UNL1        0.0238
     74 H           8.1639   -4.3390    0.0000 H       1  UNL1        0.0238
@<TRIPOS>BOND
     1     1    11    1
     2     1    12    1
     3     2    14    1
     4     2    57    1
     5     3    20    1
     6     3    64    1
     7     4    24    2
     8     5    25    1
     9     5    32    1
    10     6    32    2
    11     7     8    1
    12     7     9    1
    13     7    11    1
    14     7    35    1
    15     8    10    1
    16     8    18    1
    17     8    36    1
    18     9    13    1
    19     9    16    1
    20     9    37    1
    21    10    15    1
    22    10    17    1
    23    10    21    1
    24    11    12    1
    25    11    38    1
    26    12    14    1
    27    12    39    1
    28    13    14    1
    29    13    23    1
    30    13    24    1
    31    14    22    1
    32    15    19    1
    33    15    20    1
    34    15    40    1
    35    16    17    1
    36    16    41    1
    37    16    42    1
    38    17    43    1
    39    17    44    1
    40    18    19    1
    41    18    45    1
    42    18    46    1
    43    19    47    1
    44    19    48    1
    45    20    25    1
    46    20    28    1
    47    21    49    1
    48    21    50    1
    49    21    51    1
    50    22    26    1
    51    22    52    1
    52    22    53    1
    53    23    54    1
    54    23    55    1
    55    23    56    1
    56    24    27    1
    57    25    29    1
    58    25    58    1
    59    26    27    2
    60    26    59    1
    61    27    60    1
    62    28    61    1
    63    28    62    1
    64    28    63    1
    65    29    30    1
    66    29    65    1
    67    29    66    1
    68    30    31    1
    69    30    33    1
    70    30    67    1
    71    31    32    1
    72    31    34    1
    73    31    68    1
    74    33    69    1
    75    33    70    1
    76    33    71    1
    77    34    72    1
    78    34    73    1
    79    34    74    1
