@<TRIPOS>MOLECULE
IMPHY008490
 72 76 0 0 0
SMALL
GASTEIGER

@<TRIPOS>ATOM
      1 O           8.2709   -2.8906    0.0000 O.3     1  UNL1       -0.3849
      2 O           7.7056   -3.2170    0.0000 O.3     1  UNL1       -0.3851
      3 O           8.5677    0.3054    0.0000 O.3     1  UNL1       -0.3853
      4 O           7.0628    0.5491    0.0000 O.3     1  UNL1       -0.4571
      5 O          10.5979   -0.4681    0.0000 O.3     1  UNL1       -0.3892
      6 O           2.5357   -4.0033    0.0000 O.3     1  UNL1       -0.3915
      7 O           5.3307    0.5491    0.0000 O.2     1  UNL1       -0.2449
      8 N           5.3307    3.5491    0.0000 N.ar    1  UNL1       -0.2624
      9 C           7.9288   -0.9509    0.0000 C.3     1  UNL1        0.0674
     10 C           7.9288   -1.9509    0.0000 C.3     1  UNL1        0.1066
     11 C           7.0628   -2.4509    0.0000 C.3     1  UNL1        0.1024
     12 C           6.1968   -1.9509    0.0000 C.3     1  UNL1        0.0033
     13 C           8.8750   -0.6462    0.0000 C.3     1  UNL1        0.1030
     14 C           7.0628   -0.4509    0.0000 C.3     1  UNL1        0.1145
     15 C           8.8750   -2.2556    0.0000 C.3     1  UNL1       -0.0178
     16 C           5.2868   -2.4578    0.0000 C.3     1  UNL1       -0.0053
     17 C           6.1968   -0.9509    0.0000 C.3     1  UNL1       -0.0086
     18 C           9.4586   -1.4509    0.0000 C.3     1  UNL1       -0.0181
     19 C           7.0789   -3.4924    0.0000 C.3     1  UNL1       -0.0025
     20 C           7.9288    0.0491    0.0000 C.3     1  UNL1       -0.0507
     21 C           5.2787   -3.4994    0.0000 C.2     1  UNL1       -0.0647
     22 C           9.6851   -0.0598    0.0000 C.3     1  UNL1        0.0818
     23 C           4.3599   -1.8937    0.0000 C.3     1  UNL1       -0.0412
     24 C           6.1808   -4.0202    0.0000 C.2     1  UNL1       -0.0813
     25 C           5.2945   -1.4578    0.0000 C.3     1  UNL1       -0.0555
     26 C           4.3433   -4.0491    0.0000 C.3     1  UNL1       -0.0051
     27 C           3.4120   -2.4216    0.0000 C.3     1  UNL1       -0.0258
     28 C           3.4037   -3.5066    0.0000 C.3     1  UNL1        0.0590
     29 C           9.5823    0.9349    0.0000 C.3     1  UNL1       -0.0362
     30 C           6.1968    1.0491    0.0000 C.2     1  UNL1        0.3409
     31 C           6.1968    2.0491    0.0000 C.ar    1  UNL1        0.0770
     32 C           7.0628    2.5491    0.0000 C.ar    1  UNL1       -0.0449
     33 C           5.3307    2.5491    0.0000 C.ar    1  UNL1        0.0415
     34 C           7.0628    3.5491    0.0000 C.ar    1  UNL1       -0.0428
     35 C           6.1968    4.0491    0.0000 C.ar    1  UNL1        0.0276
     36 H           6.9329   -1.5259    0.0000 H       1  UNL1        0.0339
     37 H           6.5259   -0.1409    0.0000 H       1  UNL1        0.0741
     38 H           8.6240   -2.8226    0.0000 H       1  UNL1        0.0295
     39 H           9.4124   -2.5649    0.0000 H       1  UNL1        0.0295
     40 H           5.9847   -0.3683    0.0000 H       1  UNL1        0.0305
     41 H           5.5862   -1.0586    0.0000 H       1  UNL1        0.0305
     42 H           9.9195   -1.8656    0.0000 H       1  UNL1        0.0295
     43 H           9.9195   -1.0362    0.0000 H       1  UNL1        0.0295
     44 H           7.2969   -4.0728    0.0000 H       1  UNL1        0.0336
     45 H           7.6880   -3.3769    0.0000 H       1  UNL1        0.0336
     46 H           8.5488    0.0491    0.0000 H       1  UNL1        0.0238
     47 H           7.9288    0.6691    0.0000 H       1  UNL1        0.0238
     48 H           7.3088    0.0491    0.0000 H       1  UNL1        0.0238
     49 H          10.1873    0.3038    0.0000 H       1  UNL1        0.0619
     50 H           4.7681   -1.4270    0.0000 H       1  UNL1        0.0274
     51 H           3.9700   -1.4116    0.0000 H       1  UNL1        0.0274
     52 H           6.1832   -4.6402    0.0000 H       1  UNL1        0.0573
     53 H           8.8814   -2.9983    0.0000 H       1  UNL1        0.2103
     54 H           5.9145   -1.4626    0.0000 H       1  UNL1        0.0238
     55 H           5.2993   -0.8378    0.0000 H       1  UNL1        0.0238
     56 H           4.6745   -1.4530    0.0000 H       1  UNL1        0.0238
     57 H           7.8133   -3.8275    0.0000 H       1  UNL1        0.2103
     58 H           3.9460   -4.5250    0.0000 H       1  UNL1        0.0335
     59 H           4.7443   -4.5220    0.0000 H       1  UNL1        0.0335
     60 H           8.9833    0.7654    0.0000 H       1  UNL1        0.2103
     61 H           3.2075   -1.8363    0.0000 H       1  UNL1        0.0290
     62 H           2.8004   -2.5230    0.0000 H       1  UNL1        0.0290
     63 H           3.4025   -4.1266    0.0000 H       1  UNL1        0.0596
     64 H          10.1990    0.9986    0.0000 H       1  UNL1        0.0255
     65 H           9.5185    1.5516    0.0000 H       1  UNL1        0.0255
     66 H           8.9656    0.8712    0.0000 H       1  UNL1        0.0255
     67 H          11.1001   -0.1046    0.0000 H       1  UNL1        0.2099
     68 H           2.0000   -3.6912    0.0000 H       1  UNL1        0.2098
     69 H           7.5997    2.2391    0.0000 H       1  UNL1        0.0627
     70 H           4.7938    2.2391    0.0000 H       1  UNL1        0.0838
     71 H           7.5997    3.8591    0.0000 H       1  UNL1        0.0633
     72 H           6.1968    4.6691    0.0000 H       1  UNL1        0.0829
@<TRIPOS>BOND
     1    10     1    1
     2     1    53    1
     3    11     2    1
     4     2    57    1
     5    13     3    1
     6     3    60    1
     7    14     4    1
     8     4    30    1
     9     5    22    1
    10     5    67    1
    11    28     6    1
    12     6    68    1
    13     7    30    2
    14     8    33   ar
    15     8    35   ar
    16     9    10    1
    17     9    13    1
    18     9    14    1
    19     9    20    1
    20    10    11    1
    21    10    15    1
    22    11    12    1
    23    11    19    1
    24    12    16    1
    25    12    17    1
    26    12    36    1
    27    13    18    1
    28    13    22    1
    29    14    17    1
    30    14    37    1
    31    15    18    1
    32    15    38    1
    33    15    39    1
    34    16    21    1
    35    16    23    1
    36    16    25    1
    37    17    40    1
    38    17    41    1
    39    18    42    1
    40    18    43    1
    41    19    24    1
    42    19    44    1
    43    19    45    1
    44    20    46    1
    45    20    47    1
    46    20    48    1
    47    21    24    2
    48    21    26    1
    49    22    29    1
    50    22    49    1
    51    23    27    1
    52    23    50    1
    53    23    51    1
    54    24    52    1
    55    25    54    1
    56    25    55    1
    57    25    56    1
    58    26    28    1
    59    26    58    1
    60    26    59    1
    61    27    28    1
    62    27    61    1
    63    27    62    1
    64    28    63    1
    65    29    64    1
    66    29    65    1
    67    29    66    1
    68    30    31    1
    69    31    32   ar
    70    31    33   ar
    71    32    34   ar
    72    32    69    1
    73    33    70    1
    74    34    35   ar
    75    34    71    1
    76    35    72    1
