@<TRIPOS>MOLECULE
IMPHY007163
 39 41 0 0 0
SMALL
GASTEIGER

@<TRIPOS>ATOM
      1 O           3.7281   -0.8009    0.0000 O.3     1  UNL1       -0.4543
      2 O           5.5176   -1.4994    0.0000 O.3     1  UNL1       -0.4534
      3 O           2.0000   -1.1846    0.0000 O.2     1  UNL1       -0.2508
      4 O           6.9298   -2.5770    0.0000 O.2     1  UNL1       -0.2453
      5 C           4.4807   -0.0807    0.0000 C.3     1  UNL1        0.1508
      6 C           4.2582    0.8942    0.0000 C.3     1  UNL1        0.0054
      7 C           5.3816   -0.5146    0.0000 C.3     1  UNL1        0.1497
      8 C           4.8816    1.6760    0.0000 C.3     1  UNL1       -0.0373
      9 C           6.2826   -0.0807    0.0000 C.3     1  UNL1        0.0313
     10 C           5.8816    1.6760    0.0000 C.3     1  UNL1       -0.0494
     11 C           6.5051    0.8942    0.0000 C.3     1  UNL1       -0.0422
     12 C           3.2676    1.2165    0.0000 C.3     1  UNL1       -0.0361
     13 C           4.7032   -1.0557    0.0000 C.3     1  UNL1       -0.0210
     14 C           6.9677   -0.8010    0.0000 C.2     1  UNL1        0.0362
     15 C           2.4986    0.5139    0.0000 C.3     1  UNL1        0.0453
     16 C           4.4478    2.5770    0.0000 C.3     1  UNL1       -0.0620
     17 C           2.7304   -0.5016    0.0000 C.2     1  UNL1        0.3077
     18 C           6.4959   -1.6760    0.0000 C.2     1  UNL1        0.3354
     19 C           7.9589   -0.6685    0.0000 C.2     1  UNL1       -0.0883
     20 H           4.0139    1.7083    0.0000 H       1  UNL1        0.0343
     21 H           6.1307   -0.9164    0.0000 H       1  UNL1        0.0781
     22 H           5.2115    2.2010    0.0000 H       1  UNL1        0.0302
     23 H           7.1023    0.1443    0.0000 H       1  UNL1        0.0388
     24 H           6.4402    1.9450    0.0000 H       1  UNL1        0.0268
     25 H           5.7437    2.2805    0.0000 H       1  UNL1        0.0268
     26 H           7.0637    0.6252    0.0000 H       1  UNL1        0.0272
     27 H           6.8917    1.3789    0.0000 H       1  UNL1        0.0272
     28 H           3.5576    1.7646    0.0000 H       1  UNL1        0.0274
     29 H           2.7773    1.5959    0.0000 H       1  UNL1        0.0274
     30 H           4.0987   -1.1936    0.0000 H       1  UNL1        0.0269
     31 H           4.8412   -1.6601    0.0000 H       1  UNL1        0.0269
     32 H           5.3076   -0.9177    0.0000 H       1  UNL1        0.0269
     33 H           2.1649    1.0365    0.0000 H       1  UNL1        0.0378
     34 H           1.9267    0.2746    0.0000 H       1  UNL1        0.0378
     35 H           5.0064    2.8460    0.0000 H       1  UNL1        0.0233
     36 H           4.1788    3.1356    0.0000 H       1  UNL1        0.0233
     37 H           3.8892    2.3080    0.0000 H       1  UNL1        0.0233
     38 H           8.3373   -1.1596    0.0000 H       1  UNL1        0.0540
     39 H           8.1950   -0.0952    0.0000 H       1  UNL1        0.0540
@<TRIPOS>BOND
     1     1     5    1
     2     1    17    1
     3     2     7    1
     4     2    18    1
     5     3    17    2
     6     4    18    2
     7     5     6    1
     8     5     7    1
     9     5    13    1
    10     6     8    1
    11     6    12    1
    12     6    20    1
    13     7     9    1
    14     7    21    1
    15     8    10    1
    16     8    16    1
    17     8    22    1
    18     9    11    1
    19     9    14    1
    20     9    23    1
    21    10    11    1
    22    10    24    1
    23    10    25    1
    24    11    26    1
    25    11    27    1
    26    12    15    1
    27    12    28    1
    28    12    29    1
    29    13    30    1
    30    13    31    1
    31    13    32    1
    32    14    18    1
    33    14    19    2
    34    15    17    1
    35    15    33    1
    36    15    34    1
    37    16    35    1
    38    16    36    1
    39    16    37    1
    40    19    38    1
    41    19    39    1
