@<TRIPOS>MOLECULE
IMPHY013462
 66 68 0 0 0
SMALL
GASTEIGER

@<TRIPOS>ATOM
      1 O           8.1301   -1.7635    0.0000 O.2     1  UNL1       -0.4542
      2 O          11.6602    0.2606    0.0000 O.3     1  UNL1       -0.4911
      3 O           6.3817    1.2711    0.0000 O.3     1  UNL1       -0.5055
      4 O           4.6000   -1.7877    0.0000 O.3     1  UNL1       -0.4255
      5 O           8.1301    1.2365    0.0000 O.2     1  UNL1       -0.2863
      6 O          11.6602   -1.7877    0.0000 O.3     1  UNL1       -0.4222
      7 O           5.4718   -3.2843    0.0000 O.2     1  UNL1       -0.2507
      8 O          10.7884   -3.2843    0.0000 O.2     1  UNL1       -0.2507
      9 C           8.9961   -0.2635    0.0000 C.ar    1  UNL1        0.0719
     10 C           9.8901    0.2712    0.0000 C.ar    1  UNL1        0.0160
     11 C           7.2641   -0.2635    0.0000 C.ar    1  UNL1        0.1064
     12 C           8.9961   -1.2635    0.0000 C.ar    1  UNL1        0.1433
     13 C           8.1301    0.2365    0.0000 C.ar    1  UNL1        0.2041
     14 C           7.2641   -1.2635    0.0000 C.ar    1  UNL1        0.1463
     15 C           5.4641   -0.2427    0.0000 C.ar    1  UNL1        0.0410
     16 C           6.3701    0.2712    0.0000 C.ar    1  UNL1        0.1382
     17 C           9.8785    1.2711    0.0000 C.3     1  UNL1       -0.0049
     18 C          10.7961   -0.2427    0.0000 C.ar    1  UNL1        0.1666
     19 C           9.8901   -1.7982    0.0000 C.ar    1  UNL1        0.0275
     20 C           5.4641   -1.2843    0.0000 C.ar    1  UNL1        0.1421
     21 C           6.3701   -1.7982    0.0000 C.ar    1  UNL1        0.0243
     22 C          10.7961   -1.2843    0.0000 C.ar    1  UNL1        0.1768
     23 C           4.6000    0.2606    0.0000 C.3     1  UNL1       -0.0023
     24 C          10.7387    1.7811    0.0000 C.2     1  UNL1       -0.0808
     25 C           3.7320   -0.2360    0.0000 C.2     1  UNL1       -0.0807
     26 C          10.7271    2.7810    0.0000 C.2     1  UNL1       -0.0793
     27 C           2.8680    0.2673    0.0000 C.2     1  UNL1       -0.0793
     28 C          11.5873    3.2910    0.0000 C.3     1  UNL1       -0.0440
     29 C           9.8554    3.2710    0.0000 C.3     1  UNL1       -0.0440
     30 C          12.5282   -0.2360    0.0000 C.3     1  UNL1        0.0790
     31 C           2.0000   -0.2293    0.0000 C.3     1  UNL1       -0.0440
     32 C           2.8718    1.2673    0.0000 C.3     1  UNL1       -0.0440
     33 C           4.6038   -2.7877    0.0000 C.2     1  UNL1        0.3092
     34 C          11.6564   -2.7877    0.0000 C.2     1  UNL1        0.3093
     35 C           3.7398   -3.2910    0.0000 C.3     1  UNL1        0.0336
     36 C          12.5205   -3.2910    0.0000 C.3     1  UNL1        0.0336
     37 H           9.6597    1.8512    0.0000 H       1  UNL1        0.0357
     38 H           9.2692    1.1564    0.0000 H       1  UNL1        0.0357
     39 H           9.8829   -2.4181    0.0000 H       1  UNL1        0.0693
     40 H           6.3773   -2.4181    0.0000 H       1  UNL1        0.0692
     41 H           5.0003    0.7341    0.0000 H       1  UNL1        0.0358
     42 H           4.2033    0.7371    0.0000 H       1  UNL1        0.0358
     43 H          11.2792    1.4773    0.0000 H       1  UNL1        0.0575
     44 H           3.7296   -0.8560    0.0000 H       1  UNL1        0.0575
     45 H           5.8484    1.5873    0.0000 H       1  UNL1        0.2922
     46 H          11.9035    2.7577    0.0000 H       1  UNL1        0.0274
     47 H          12.1206    3.6072    0.0000 H       1  UNL1        0.0274
     48 H          11.2711    3.8243    0.0000 H       1  UNL1        0.0274
     49 H          10.1592    3.8114    0.0000 H       1  UNL1        0.0274
     50 H           9.3149    3.5747    0.0000 H       1  UNL1        0.0274
     51 H           9.5516    2.7305    0.0000 H       1  UNL1        0.0274
     52 H          12.2203   -0.7741    0.0000 H       1  UNL1        0.0660
     53 H          13.0663   -0.5439    0.0000 H       1  UNL1        0.0660
     54 H          12.8361    0.3021    0.0000 H       1  UNL1        0.0660
     55 H           1.6921    0.3088    0.0000 H       1  UNL1        0.0274
     56 H           1.4619   -0.5373    0.0000 H       1  UNL1        0.0274
     57 H           2.3079   -0.7675    0.0000 H       1  UNL1        0.0274
     58 H           3.4918    1.2649    0.0000 H       1  UNL1        0.0274
     59 H           2.8742    1.8873    0.0000 H       1  UNL1        0.0274
     60 H           2.2518    1.2697    0.0000 H       1  UNL1        0.0274
     61 H           3.4277   -2.7553    0.0000 H       1  UNL1        0.0342
     62 H           3.2040   -3.6030    0.0000 H       1  UNL1        0.0342
     63 H           4.0518   -3.8267    0.0000 H       1  UNL1        0.0342
     64 H          12.2084   -3.8267    0.0000 H       1  UNL1        0.0342
     65 H          13.0562   -3.6030    0.0000 H       1  UNL1        0.0342
     66 H          12.8325   -2.7553    0.0000 H       1  UNL1        0.0342
@<TRIPOS>BOND
     1     1    12   ar
     2     1    14   ar
     3     2    18    1
     4     2    30    1
     5     3    16    1
     6     3    45    1
     7     4    20    1
     8     4    33    1
     9     5    13    2
    10     6    22    1
    11     6    34    1
    12     7    33    2
    13     8    34    2
    14     9    10   ar
    15     9    12   ar
    16     9    13   ar
    17    10    17    1
    18    10    18   ar
    19    11    13   ar
    20    11    14   ar
    21    11    16   ar
    22    12    19   ar
    23    14    21   ar
    24    15    16   ar
    25    15    20   ar
    26    15    23    1
    27    17    24    1
    28    17    37    1
    29    17    38    1
    30    18    22   ar
    31    19    22   ar
    32    19    39    1
    33    20    21   ar
    34    21    40    1
    35    23    25    1
    36    23    41    1
    37    23    42    1
    38    24    26    2
    39    24    43    1
    40    25    27    2
    41    25    44    1
    42    26    28    1
    43    26    29    1
    44    27    31    1
    45    27    32    1
    46    28    46    1
    47    28    47    1
    48    28    48    1
    49    29    49    1
    50    29    50    1
    51    29    51    1
    52    30    52    1
    53    30    53    1
    54    30    54    1
    55    31    55    1
    56    31    56    1
    57    31    57    1
    58    32    58    1
    59    32    59    1
    60    32    60    1
    61    33    35    1
    62    34    36    1
    63    35    61    1
    64    35    62    1
    65    35    63    1
    66    36    64    1
    67    36    65    1
    68    36    66    1
