@<TRIPOS>MOLECULE
IMPHY004534
 21 23 0 0 0
SMALL
GASTEIGER

@<TRIPOS>ATOM
      1 O           7.3424   -1.4424    0.0000 O.2     1  UNL1       -0.4627
      2 O           3.7702   -1.6723    0.0000 O.2     1  UNL1       -0.4219
      3 O           5.5301    1.3623    0.0000 O.3     1  UNL1       -0.5053
      4 O           2.0000   -1.6618    0.0000 O.2     1  UNL1       -0.2452
      5 C           6.3961   -0.1377    0.0000 C.ar    1  UNL1        0.0623
      6 C           4.6641   -0.1377    0.0000 C.ar    1  UNL1        0.0598
      7 C           6.3961   -1.1377    0.0000 C.ar    1  UNL1        0.1418
      8 C           5.5301    0.3623    0.0000 C.ar    1  UNL1        0.1382
      9 C           4.6641   -1.1377    0.0000 C.ar    1  UNL1        0.1461
     10 C           5.5301   -1.6377    0.0000 C.ar    1  UNL1        0.0245
     11 C           7.3424    0.1671    0.0000 C.ar    1  UNL1       -0.0126
     12 C           3.7702    0.3970    0.0000 C.ar    1  UNL1       -0.0408
     13 C           7.9260   -0.6377    0.0000 C.ar    1  UNL1        0.0933
     14 C           2.8641   -0.1169    0.0000 C.ar    1  UNL1        0.0237
     15 C           2.8641   -1.1585    0.0000 C.ar    1  UNL1        0.3372
     16 H           5.5301   -2.2577    0.0000 H       1  UNL1        0.0692
     17 H           7.5350    0.7564    0.0000 H       1  UNL1        0.0656
     18 H           3.7773    1.0170    0.0000 H       1  UNL1        0.0628
     19 H           8.5460   -0.6377    0.0000 H       1  UNL1        0.1030
     20 H           2.3284    0.1952    0.0000 H       1  UNL1        0.0689
     21 H           6.0671    1.6723    0.0000 H       1  UNL1        0.2922
@<TRIPOS>BOND
     1     1     7   ar
     2     1    13   ar
     3     2     9   ar
     4     2    15   ar
     5     3     8    1
     6     3    21    1
     7     4    15    2
     8     5     7   ar
     9     5     8   ar
    10     5    11   ar
    11     6     8   ar
    12     6     9   ar
    13     6    12   ar
    14     7    10   ar
    15     9    10   ar
    16    10    16    1
    17    11    13   ar
    18    11    17    1
    19    12    14   ar
    20    12    18    1
    21    13    19    1
    22    14    15   ar
    23    14    20    1
