@<TRIPOS>MOLECULE
IMPHY006931
 52 52 0 0 0
SMALL
GASTEIGER

@<TRIPOS>ATOM
      1 C           5.4641    1.2010    0.0000 C.3     1  UNL1       -0.0073
      2 C           6.3301    0.7010    0.0000 C.3     1  UNL1       -0.0402
      3 C           4.5981    0.7010    0.0000 C.3     1  UNL1       -0.0226
      4 C           5.9641    2.0670    0.0000 C.3     1  UNL1       -0.0402
      5 C           6.3301   -0.2990    0.0000 C.3     1  UNL1       -0.0337
      6 C           4.5981   -0.2990    0.0000 C.2     1  UNL1       -0.0723
      7 C           5.4641   -0.7990    0.0000 C.2     1  UNL1       -0.0847
      8 C           4.9641    2.0670    0.0000 C.2     1  UNL1       -0.0846
      9 C           6.9641    2.0670    0.0000 C.3     1  UNL1       -0.0337
     10 C           3.7320   -0.7990    0.0000 C.3     1  UNL1       -0.0283
     11 C           3.7320   -1.7990    0.0000 C.3     1  UNL1       -0.0308
     12 C           7.4641    2.9330    0.0000 C.2     1  UNL1       -0.0853
     13 C           3.9641    2.0670    0.0000 C.2     1  UNL1       -0.1021
     14 C           2.8660   -2.2990    0.0000 C.2     1  UNL1       -0.0850
     15 C           8.4641    2.9330    0.0000 C.2     1  UNL1       -0.0796
     16 C           2.8660   -3.2990    0.0000 C.2     1  UNL1       -0.0796
     17 C           8.9641    3.7990    0.0000 C.3     1  UNL1       -0.0440
     18 C           8.9641    2.0670    0.0000 C.3     1  UNL1       -0.0440
     19 C           2.0000   -3.7990    0.0000 C.3     1  UNL1       -0.0440
     20 C           3.7320   -3.7990    0.0000 C.3     1  UNL1       -0.0440
     21 H           6.9407    0.5933    0.0000 H       1  UNL1        0.0277
     22 H           6.5422    1.2836    0.0000 H       1  UNL1        0.0277
     23 H           4.3860    1.2836    0.0000 H       1  UNL1        0.0318
     24 H           3.9875    0.5933    0.0000 H       1  UNL1        0.0318
     25 H           6.0718    2.6776    0.0000 H       1  UNL1        0.0277
     26 H           5.3815    2.2790    0.0000 H       1  UNL1        0.0277
     27 H           6.5422   -0.8816    0.0000 H       1  UNL1        0.0308
     28 H           6.9407   -0.1914    0.0000 H       1  UNL1        0.0308
     29 H           5.4641   -1.4190    0.0000 H       1  UNL1        0.0572
     30 H           5.2741    2.6039    0.0000 H       1  UNL1        0.0572
     31 H           6.8564    1.4564    0.0000 H       1  UNL1        0.0308
     32 H           7.5467    1.8549    0.0000 H       1  UNL1        0.0308
     33 H           3.5200   -0.2164    0.0000 H       1  UNL1        0.0313
     34 H           3.1215   -0.9067    0.0000 H       1  UNL1        0.0313
     35 H           3.9441   -2.3816    0.0000 H       1  UNL1        0.0310
     36 H           4.3426   -1.6914    0.0000 H       1  UNL1        0.0310
     37 H           7.1541    3.4700    0.0000 H       1  UNL1        0.0571
     38 H           3.6541    2.6039    0.0000 H       1  UNL1        0.0532
     39 H           3.6541    1.5300    0.0000 H       1  UNL1        0.0532
     40 H           2.3291   -1.9890    0.0000 H       1  UNL1        0.0572
     41 H           9.5010    3.4890    0.0000 H       1  UNL1        0.0274
     42 H           9.2741    4.3360    0.0000 H       1  UNL1        0.0274
     43 H           8.4272    4.1090    0.0000 H       1  UNL1        0.0274
     44 H           8.4272    1.7570    0.0000 H       1  UNL1        0.0274
     45 H           9.2741    1.5300    0.0000 H       1  UNL1        0.0274
     46 H           9.5010    2.3770    0.0000 H       1  UNL1        0.0274
     47 H           3.4220   -4.3360    0.0000 H       1  UNL1        0.0274
     48 H           4.2690   -4.1090    0.0000 H       1  UNL1        0.0274
     49 H           4.0420   -3.2621    0.0000 H       1  UNL1        0.0274
     50 H           1.6900   -3.2621    0.0000 H       1  UNL1        0.0274
     51 H           1.4631   -4.1090    0.0000 H       1  UNL1        0.0274
     52 H           2.3100   -4.3360    0.0000 H       1  UNL1        0.0274
@<TRIPOS>BOND
     1     1     2    1
     2     1     3    1
     3     1     4    1
     4     1     8    1
     5     2     5    1
     6     2    21    1
     7     2    22    1
     8     3     6    1
     9     3    23    1
    10     3    24    1
    11     4     9    1
    12     4    25    1
    13     4    26    1
    14     5     7    1
    15     5    27    1
    16     5    28    1
    17     6     7    2
    18     6    10    1
    19     7    29    1
    20     8    13    2
    21     8    30    1
    22     9    12    1
    23     9    31    1
    24     9    32    1
    25    10    11    1
    26    10    33    1
    27    10    34    1
    28    11    14    1
    29    11    35    1
    30    11    36    1
    31    12    15    2
    32    12    37    1
    33    13    38    1
    34    13    39    1
    35    14    16    2
    36    14    40    1
    37    15    17    1
    38    15    18    1
    39    16    19    1
    40    16    20    1
    41    17    41    1
    42    17    42    1
    43    17    43    1
    44    18    44    1
    45    18    45    1
    46    18    46    1
    47    19    50    1
    48    19    51    1
    49    19    52    1
    50    20    47    1
    51    20    48    1
    52    20    49    1
