@<TRIPOS>MOLECULE
IMPHY015428
 63 62 0 0 0
SMALL
GASTEIGER

@<TRIPOS>ATOM
      1 O           2.8660    0.4400    0.0000 O.3     1  UNL1       -0.4679
      2 O           3.7320   -1.0600    0.0000 O.2     1  UNL1       -0.2509
      3 C          19.3205   -0.0600    0.0000 C.3     1  UNL1       -0.0528
      4 C          20.1865    0.4400    0.0000 C.3     1  UNL1       -0.0533
      5 C          18.4545    0.4400    0.0000 C.3     1  UNL1       -0.0496
      6 C          21.0526   -0.0600    0.0000 C.3     1  UNL1       -0.0559
      7 C          17.5885   -0.0600    0.0000 C.3     1  UNL1       -0.0348
      8 C           6.3301    0.4400    0.0000 C.3     1  UNL1       -0.0491
      9 C           5.4641   -0.0600    0.0000 C.3     1  UNL1       -0.0427
     10 C          21.9186    0.4400    0.0000 C.3     1  UNL1       -0.0653
     11 C          16.7224    0.4400    0.0000 C.2     1  UNL1       -0.0876
     12 C           7.1962   -0.0600    0.0000 C.3     1  UNL1       -0.0347
     13 C           4.5981    0.4400    0.0000 C.3     1  UNL1        0.0449
     14 C          15.8564   -0.0600    0.0000 C.2     1  UNL1       -0.0842
     15 C           8.0622    0.4400    0.0000 C.2     1  UNL1       -0.0876
     16 C          14.9904    0.4400    0.0000 C.3     1  UNL1       -0.0165
     17 C           8.9282   -0.0600    0.0000 C.2     1  UNL1       -0.0842
     18 C           3.7320   -0.0600    0.0000 C.2     1  UNL1        0.3068
     19 C           9.7942    0.4400    0.0000 C.3     1  UNL1       -0.0165
     20 C          14.1244   -0.0600    0.0000 C.2     1  UNL1       -0.0839
     21 C          12.3923   -0.0600    0.0000 C.3     1  UNL1       -0.0165
     22 C          10.6603   -0.0600    0.0000 C.2     1  UNL1       -0.0839
     23 C          13.2583    0.4400    0.0000 C.2     1  UNL1       -0.0839
     24 C          11.5263    0.4400    0.0000 C.2     1  UNL1       -0.0839
     25 C           2.0000   -0.0600    0.0000 C.3     1  UNL1        0.0817
     26 H          18.9220   -0.5349    0.0000 H       1  UNL1        0.0265
     27 H          19.7190   -0.5349    0.0000 H       1  UNL1        0.0265
     28 H          20.5851    0.9149    0.0000 H       1  UNL1        0.0265
     29 H          19.7880    0.9149    0.0000 H       1  UNL1        0.0265
     30 H          18.8530    0.9149    0.0000 H       1  UNL1        0.0268
     31 H          18.0560    0.9149    0.0000 H       1  UNL1        0.0268
     32 H          20.6540   -0.5349    0.0000 H       1  UNL1        0.0263
     33 H          21.4511   -0.5349    0.0000 H       1  UNL1        0.0263
     34 H          17.1899   -0.5349    0.0000 H       1  UNL1        0.0307
     35 H          17.9870   -0.5349    0.0000 H       1  UNL1        0.0307
     36 H           6.7287    0.9149    0.0000 H       1  UNL1        0.0268
     37 H           5.9316    0.9149    0.0000 H       1  UNL1        0.0268
     38 H           5.0656   -0.5349    0.0000 H       1  UNL1        0.0270
     39 H           5.8626   -0.5349    0.0000 H       1  UNL1        0.0270
     40 H          22.2286   -0.0969    0.0000 H       1  UNL1        0.0230
     41 H          22.4555    0.7500    0.0000 H       1  UNL1        0.0230
     42 H          21.6086    0.9769    0.0000 H       1  UNL1        0.0230
     43 H           6.7976   -0.5349    0.0000 H       1  UNL1        0.0307
     44 H           7.5947   -0.5349    0.0000 H       1  UNL1        0.0307
     45 H          16.7224    1.0600    0.0000 H       1  UNL1        0.0569
     46 H           4.9966    0.9149    0.0000 H       1  UNL1        0.0377
     47 H           4.1996    0.9149    0.0000 H       1  UNL1        0.0377
     48 H          15.8564   -0.6800    0.0000 H       1  UNL1        0.0572
     49 H           8.0622    1.0600    0.0000 H       1  UNL1        0.0569
     50 H          15.3889    0.9149    0.0000 H       1  UNL1        0.0350
     51 H          14.5919    0.9149    0.0000 H       1  UNL1        0.0350
     52 H           8.9282   -0.6800    0.0000 H       1  UNL1        0.0572
     53 H          10.1928    0.9149    0.0000 H       1  UNL1        0.0350
     54 H           9.3957    0.9149    0.0000 H       1  UNL1        0.0350
     55 H          14.1244   -0.6800    0.0000 H       1  UNL1        0.0572
     56 H          11.9938   -0.5349    0.0000 H       1  UNL1        0.0350
     57 H          12.7908   -0.5349    0.0000 H       1  UNL1        0.0350
     58 H          10.6603   -0.6800    0.0000 H       1  UNL1        0.0572
     59 H          13.2583    1.0600    0.0000 H       1  UNL1        0.0572
     60 H          11.5263    1.0600    0.0000 H       1  UNL1        0.0572
     61 H           1.6900    0.4769    0.0000 H       1  UNL1        0.0661
     62 H           1.4631   -0.3700    0.0000 H       1  UNL1        0.0661
     63 H           2.3100   -0.5969    0.0000 H       1  UNL1        0.0661
@<TRIPOS>BOND
     1     1    18    1
     2     1    25    1
     3     2    18    2
     4     3     4    1
     5     3     5    1
     6     3    26    1
     7     3    27    1
     8     4     6    1
     9     4    28    1
    10     4    29    1
    11     5     7    1
    12     5    30    1
    13     5    31    1
    14     6    10    1
    15     6    32    1
    16     6    33    1
    17     7    11    1
    18     7    34    1
    19     7    35    1
    20     8     9    1
    21     8    12    1
    22     8    36    1
    23     8    37    1
    24     9    13    1
    25     9    38    1
    26     9    39    1
    27    10    40    1
    28    10    41    1
    29    10    42    1
    30    11    14    2
    31    11    45    1
    32    12    15    1
    33    12    43    1
    34    12    44    1
    35    13    18    1
    36    13    46    1
    37    13    47    1
    38    14    16    1
    39    14    48    1
    40    15    17    2
    41    15    49    1
    42    16    20    1
    43    16    50    1
    44    16    51    1
    45    17    19    1
    46    17    52    1
    47    19    22    1
    48    19    53    1
    49    19    54    1
    50    20    23    2
    51    20    55    1
    52    21    23    1
    53    21    24    1
    54    21    56    1
    55    21    57    1
    56    22    24    2
    57    22    58    1
    58    23    59    1
    59    24    60    1
    60    25    61    1
    61    25    62    1
    62    25    63    1
