@<TRIPOS>MOLECULE
IMPHY011235
 59 61 0 0 0
SMALL
GASTEIGER

@<TRIPOS>ATOM
      1 O           8.0420   -0.4330    0.0000 O.3     1  UNL1       -0.4913
      2 O           2.3100    1.2990    0.0000 O.3     1  UNL1       -0.4806
      3 O           3.8100    2.1651    0.0000 O.2     1  UNL1       -0.2510
      4 O          11.5341   -0.4677    0.0000 O.2     1  UNL1       -0.4220
      5 O          13.3042   -0.4572    0.0000 O.2     1  UNL1       -0.2452
      6 C           6.3100   -0.4330    0.0000 C.3     1  UNL1        0.0111
      7 C           5.3100   -0.4330    0.0000 C.3     1  UNL1       -0.0104
      8 C           6.8100   -1.2990    0.0000 C.3     1  UNL1       -0.0345
      9 C           6.3100   -2.1651    0.0000 C.3     1  UNL1       -0.0461
     10 C           4.8100   -1.2990    0.0000 C.2     1  UNL1       -0.0671
     11 C           5.3100   -2.1651    0.0000 C.3     1  UNL1       -0.0310
     12 C           7.1760    0.0670    0.0000 C.3     1  UNL1        0.0957
     13 C           4.8100    0.4330    0.0000 C.3     1  UNL1       -0.0358
     14 C           6.3100    0.5670    0.0000 C.3     1  UNL1       -0.0557
     15 C           7.8100   -1.2990    0.0000 C.3     1  UNL1       -0.0618
     16 C           3.8100   -1.2990    0.0000 C.2     1  UNL1       -0.0762
     17 C           3.8100    0.4330    0.0000 C.3     1  UNL1        0.0453
     18 C           3.3100   -2.1651    0.0000 C.3     1  UNL1       -0.0438
     19 C           3.3100   -0.4330    0.0000 C.3     1  UNL1       -0.0438
     20 C           3.3100    1.2990    0.0000 C.2     1  UNL1        0.3047
     21 C           8.9081    0.0670    0.0000 C.ar    1  UNL1        0.1241
     22 C           9.7741   -0.4330    0.0000 C.ar    1  UNL1        0.0231
     23 C           8.9081    1.0670    0.0000 C.ar    1  UNL1       -0.0192
     24 C          10.6401    0.0670    0.0000 C.ar    1  UNL1        0.1425
     25 C           9.7741    1.5670    0.0000 C.ar    1  UNL1       -0.0476
     26 C          10.6401    1.0670    0.0000 C.ar    1  UNL1        0.0178
     27 C          11.5341    1.6016    0.0000 C.ar    1  UNL1       -0.0443
     28 C          12.4401    1.0878    0.0000 C.ar    1  UNL1        0.0236
     29 C          12.4401    0.0462    0.0000 C.ar    1  UNL1        0.3372
     30 H           5.6200    0.1039    0.0000 H       1  UNL1        0.0352
     31 H           7.1200   -0.7621    0.0000 H       1  UNL1        0.0305
     32 H           6.2023   -2.7756    0.0000 H       1  UNL1        0.0271
     33 H           6.8926   -2.3771    0.0000 H       1  UNL1        0.0271
     34 H           4.7274   -2.3771    0.0000 H       1  UNL1        0.0310
     35 H           5.4177   -2.7756    0.0000 H       1  UNL1        0.0310
     36 H           7.5746    0.5419    0.0000 H       1  UNL1        0.0702
     37 H           6.7775    0.5419    0.0000 H       1  UNL1        0.0702
     38 H           5.3926    0.6451    0.0000 H       1  UNL1        0.0276
     39 H           4.7023    1.0436    0.0000 H       1  UNL1        0.0276
     40 H           6.9300    0.5670    0.0000 H       1  UNL1        0.0236
     41 H           6.3100    1.1870    0.0000 H       1  UNL1        0.0236
     42 H           5.6900    0.5670    0.0000 H       1  UNL1        0.0236
     43 H           7.8100   -1.9190    0.0000 H       1  UNL1        0.0233
     44 H           8.4300   -1.2990    0.0000 H       1  UNL1        0.0233
     45 H           7.8100   -0.6790    0.0000 H       1  UNL1        0.0233
     46 H           3.2274    0.2210    0.0000 H       1  UNL1        0.0378
     47 H           3.9177   -0.1776    0.0000 H       1  UNL1        0.0378
     48 H           2.7731   -1.8551    0.0000 H       1  UNL1        0.0274
     49 H           3.0000   -2.7020    0.0000 H       1  UNL1        0.0274
     50 H           3.8469   -2.4751    0.0000 H       1  UNL1        0.0274
     51 H           3.8469   -0.1230    0.0000 H       1  UNL1        0.0274
     52 H           3.0000    0.1039    0.0000 H       1  UNL1        0.0274
     53 H           2.7731   -0.7430    0.0000 H       1  UNL1        0.0274
     54 H           9.7741   -1.0530    0.0000 H       1  UNL1        0.0691
     55 H           8.3711    1.3770    0.0000 H       1  UNL1        0.0654
     56 H           2.0000    1.8360    0.0000 H       1  UNL1        0.2951
     57 H           9.7741    2.1870    0.0000 H       1  UNL1        0.0626
     58 H          11.5269    2.2216    0.0000 H       1  UNL1        0.0627
     59 H          12.9759    1.3999    0.0000 H       1  UNL1        0.0689
@<TRIPOS>BOND
     1     1    12    1
     2     1    21    1
     3     2    20    1
     4     2    56    1
     5     3    20    2
     6     4    24   ar
     7     4    29   ar
     8     5    29    2
     9     6     7    1
    10     6     8    1
    11     6    12    1
    12     6    14    1
    13     7    10    1
    14     7    13    1
    15     7    30    1
    16     8     9    1
    17     8    15    1
    18     8    31    1
    19     9    11    1
    20     9    32    1
    21     9    33    1
    22    10    11    1
    23    10    16    2
    24    11    34    1
    25    11    35    1
    26    12    36    1
    27    12    37    1
    28    13    17    1
    29    13    38    1
    30    13    39    1
    31    14    40    1
    32    14    41    1
    33    14    42    1
    34    15    43    1
    35    15    44    1
    36    15    45    1
    37    16    18    1
    38    16    19    1
    39    17    20    1
    40    17    46    1
    41    17    47    1
    42    18    48    1
    43    18    49    1
    44    18    50    1
    45    19    51    1
    46    19    52    1
    47    19    53    1
    48    21    22   ar
    49    21    23   ar
    50    22    24   ar
    51    22    54    1
    52    23    25   ar
    53    23    55    1
    54    24    26   ar
    55    25    26   ar
    56    25    57    1
    57    26    27   ar
    58    27    28   ar
    59    27    58    1
    60    28    29   ar
    61    28    59    1
