@<TRIPOS>MOLECULE
IMPHY008079
 34 36 0 0 0
SMALL
GASTEIGER

@<TRIPOS>ATOM
      1 O           6.0682    0.0000    0.0000 O.2     1  UNL1       -0.4508
      2 O           7.8003    2.0000    0.0000 O.3     1  UNL1       -0.5007
      3 O           8.6663   -2.5000    0.0000 O.3     1  UNL1       -0.4914
      4 O           6.0682    3.0000    0.0000 O.2     1  UNL1       -0.2831
      5 O           2.5381   -0.0241    0.0000 O.3     1  UNL1       -0.5066
      6 O          10.3984   -1.5000    0.0000 O.3     1  UNL1       -0.5033
      7 C           6.9343    0.5000    0.0000 C.ar    1  UNL1        0.1807
      8 C           5.2022    1.5000    0.0000 C.ar    1  UNL1        0.0679
      9 C           7.8003    0.0000    0.0000 C.ar    1  UNL1        0.0247
     10 C           5.2022    0.5000    0.0000 C.ar    1  UNL1        0.1430
     11 C           6.9343    1.5000    0.0000 C.ar    1  UNL1        0.2081
     12 C           6.0682    2.0000    0.0000 C.ar    1  UNL1        0.2343
     13 C           7.8003   -1.0000    0.0000 C.ar    1  UNL1       -0.0055
     14 C           4.3083    2.0347    0.0000 C.ar    1  UNL1       -0.0438
     15 C           4.3083   -0.0347    0.0000 C.ar    1  UNL1        0.0229
     16 C           8.6663    0.5000    0.0000 C.ar    1  UNL1       -0.0473
     17 C           8.6663   -1.5000    0.0000 C.ar    1  UNL1        0.1619
     18 C           3.4022    0.4792    0.0000 C.ar    1  UNL1        0.1204
     19 C           3.4022    1.5208    0.0000 C.ar    1  UNL1       -0.0193
     20 C           9.5323   -0.0000    0.0000 C.ar    1  UNL1       -0.0159
     21 C           9.5323   -1.0000    0.0000 C.ar    1  UNL1        0.1585
     22 C           9.5323   -3.0000    0.0000 C.3     1  UNL1        0.0790
     23 H           7.2634   -1.3100    0.0000 H       1  UNL1        0.0662
     24 H           4.3154    2.6546    0.0000 H       1  UNL1        0.0627
     25 H           4.3154   -0.6546    0.0000 H       1  UNL1        0.0691
     26 H           8.6663    1.1200    0.0000 H       1  UNL1        0.0626
     27 H           2.8665    1.8329    0.0000 H       1  UNL1        0.0654
     28 H          10.0693    0.3100    0.0000 H       1  UNL1        0.0655
     29 H           7.8003    2.6200    0.0000 H       1  UNL1        0.2924
     30 H           2.0000    0.2838    0.0000 H       1  UNL1        0.2921
     31 H          10.9353   -1.1900    0.0000 H       1  UNL1        0.2923
     32 H           9.2224   -3.5369    0.0000 H       1  UNL1        0.0660
     33 H          10.0693   -3.3100    0.0000 H       1  UNL1        0.0660
     34 H           9.8424   -2.4631    0.0000 H       1  UNL1        0.0660
@<TRIPOS>BOND
     1     1     7   ar
     2     1    10   ar
     3     2    11    1
     4     2    29    1
     5     3    17    1
     6     3    22    1
     7     4    12    2
     8     5    18    1
     9     5    30    1
    10     6    21    1
    11     6    31    1
    12     7     9    1
    13     7    11   ar
    14     8    10   ar
    15     8    12   ar
    16     8    14   ar
    17     9    13   ar
    18     9    16   ar
    19    10    15   ar
    20    11    12   ar
    21    13    17   ar
    22    13    23    1
    23    14    19   ar
    24    14    24    1
    25    15    18   ar
    26    15    25    1
    27    16    20   ar
    28    16    26    1
    29    17    21   ar
    30    18    19   ar
    31    19    27    1
    32    20    21   ar
    33    20    28    1
    34    22    32    1
    35    22    33    1
    36    22    34    1
