@<TRIPOS>MOLECULE
IMPHY002971
 22 23 0 0 0
SMALL
GASTEIGER

@<TRIPOS>ATOM
      1 O           3.7320   -1.8623    0.0000 O.3     1  UNL1       -0.5060
      2 O           5.4804    2.1723    0.0000 O.2     1  UNL1       -0.2873
      3 O           5.4804   -1.8969    0.0000 O.2     1  UNL1       -0.2871
      4 C           4.5981    0.6377    0.0000 C.ar    1  UNL1        0.0362
      5 C           4.5981   -0.3623    0.0000 C.ar    1  UNL1        0.0738
      6 C           2.8660    0.6377    0.0000 C.ar    1  UNL1       -0.0463
      7 C           3.7320    1.1377    0.0000 C.ar    1  UNL1       -0.0471
      8 C           3.7320   -0.8623    0.0000 C.ar    1  UNL1        0.1286
      9 C           2.8660   -0.3623    0.0000 C.ar    1  UNL1       -0.0165
     10 C           5.4920    1.1724    0.0000 C.2     1  UNL1        0.1870
     11 C           5.4920   -0.8970    0.0000 C.2     1  UNL1        0.1904
     12 C           6.3981    0.6585    0.0000 C.2     1  UNL1       -0.0107
     13 C           6.3981   -0.3831    0.0000 C.2     1  UNL1       -0.0106
     14 C           2.0000    1.1377    0.0000 C.3     1  UNL1       -0.0396
     15 H           3.7320    1.7577    0.0000 H       1  UNL1        0.0627
     16 H           2.3291   -0.6723    0.0000 H       1  UNL1        0.0657
     17 H           6.9338    0.9706    0.0000 H       1  UNL1        0.0657
     18 H           6.9338   -0.6952    0.0000 H       1  UNL1        0.0657
     19 H           2.3100    1.6746    0.0000 H       1  UNL1        0.0278
     20 H           1.4631    1.4477    0.0000 H       1  UNL1        0.0278
     21 H           1.6900    0.6008    0.0000 H       1  UNL1        0.0278
     22 H           3.1951   -2.1723    0.0000 H       1  UNL1        0.2922
@<TRIPOS>BOND
     1     1     8    1
     2     1    22    1
     3     2    10    2
     4     3    11    2
     5     4     5   ar
     6     4     7   ar
     7     4    10    1
     8     5     8   ar
     9     5    11    1
    10     6     7   ar
    11     6     9   ar
    12     6    14    1
    13     7    15    1
    14     8     9   ar
    15     9    16    1
    16    10    12    1
    17    11    13    1
    18    12    13    2
    19    12    17    1
    20    13    18    1
    21    14    19    1
    22    14    20    1
    23    14    21    1
