@<TRIPOS>MOLECULE
IMPHY017018
 18 17 0 0 0
SMALL
GASTEIGER

@<TRIPOS>ATOM
      1 O           2.8660    0.2500    0.0000 O.3     1  UNL1       -0.3830
      2 C           4.5981    0.2500    0.0000 C.3     1  UNL1       -0.0297
      3 C           5.4641   -0.2500    0.0000 C.3     1  UNL1       -0.0538
      4 C           3.7320   -0.2500    0.0000 C.3     1  UNL1        0.0473
      5 C           6.3301    0.2500    0.0000 C.3     1  UNL1       -0.0652
      6 C           2.0000   -0.2500    0.0000 C.3     1  UNL1        0.0364
      7 H           4.9966    0.7249    0.0000 H       1  UNL1        0.0287
      8 H           4.1996    0.7249    0.0000 H       1  UNL1        0.0287
      9 H           5.0656   -0.7249    0.0000 H       1  UNL1        0.0263
     10 H           5.8626   -0.7249    0.0000 H       1  UNL1        0.0263
     11 H           3.3335   -0.7249    0.0000 H       1  UNL1        0.0560
     12 H           4.1306   -0.7249    0.0000 H       1  UNL1        0.0560
     13 H           6.6401   -0.2869    0.0000 H       1  UNL1        0.0230
     14 H           6.8671    0.5600    0.0000 H       1  UNL1        0.0230
     15 H           6.0201    0.7869    0.0000 H       1  UNL1        0.0230
     16 H           1.6900    0.2869    0.0000 H       1  UNL1        0.0523
     17 H           1.4631   -0.5600    0.0000 H       1  UNL1        0.0523
     18 H           2.3100   -0.7869    0.0000 H       1  UNL1        0.0523
@<TRIPOS>BOND
     1     1     4    1
     2     1     6    1
     3     2     3    1
     4     2     4    1
     5     2     7    1
     6     2     8    1
     7     3     5    1
     8     3     9    1
     9     3    10    1
    10     4    11    1
    11     4    12    1
    12     5    13    1
    13     5    14    1
    14     5    15    1
    15     6    16    1
    16     6    17    1
    17     6    18    1
