@<TRIPOS>MOLECULE
IMPHY012889
 41 43 0 0 0
SMALL
GASTEIGER

@<TRIPOS>ATOM
      1 O           6.3981   -0.6154    0.0000 O.2     1  UNL1       -0.4470
      2 O           4.6497   -1.6500    0.0000 O.3     1  UNL1       -0.4885
      3 O           8.1301    1.3846    0.0000 O.3     1  UNL1       -0.4883
      4 O           2.8680   -0.6395    0.0000 O.3     1  UNL1       -0.4912
      5 O           4.6497    2.4192    0.0000 O.3     1  UNL1       -0.5058
      6 O           6.3981    2.3846    0.0000 O.2     1  UNL1       -0.2830
      7 O          10.7282   -2.1154    0.0000 O.3     1  UNL1       -0.5068
      8 C           5.5320    0.8846    0.0000 C.ar    1  UNL1        0.1128
      9 C           5.5320   -0.1154    0.0000 C.ar    1  UNL1        0.1881
     10 C           7.2641   -0.1154    0.0000 C.ar    1  UNL1        0.1810
     11 C           4.6381   -0.6501    0.0000 C.ar    1  UNL1        0.2051
     12 C           6.3981    1.3846    0.0000 C.ar    1  UNL1        0.2382
     13 C           7.2641    0.8846    0.0000 C.ar    1  UNL1        0.2107
     14 C           4.6381    1.4193    0.0000 C.ar    1  UNL1        0.1350
     15 C           8.1301   -0.6154    0.0000 C.ar    1  UNL1        0.0213
     16 C           3.7320   -0.1362    0.0000 C.ar    1  UNL1        0.1687
     17 C           3.7320    0.9054    0.0000 C.ar    1  UNL1        0.0261
     18 C           8.9962   -0.1154    0.0000 C.ar    1  UNL1       -0.0475
     19 C           8.1301   -1.6154    0.0000 C.ar    1  UNL1       -0.0475
     20 C           9.8622   -0.6154    0.0000 C.ar    1  UNL1       -0.0195
     21 C           8.9962   -2.1154    0.0000 C.ar    1  UNL1       -0.0195
     22 C           9.8622   -1.6154    0.0000 C.ar    1  UNL1        0.1169
     23 C           3.7895   -2.1600    0.0000 C.3     1  UNL1        0.0791
     24 C           8.1301    2.3846    0.0000 C.3     1  UNL1        0.0791
     25 C           2.0000   -0.1429    0.0000 C.3     1  UNL1        0.0790
     26 H           3.1963    1.2175    0.0000 H       1  UNL1        0.0692
     27 H           8.9962    0.5046    0.0000 H       1  UNL1        0.0626
     28 H           7.5932   -1.9254    0.0000 H       1  UNL1        0.0626
     29 H          10.3991   -0.3054    0.0000 H       1  UNL1        0.0654
     30 H           8.9962   -2.7354    0.0000 H       1  UNL1        0.0654
     31 H           4.1164    2.7354    0.0000 H       1  UNL1        0.2922
     32 H           3.4733   -1.6266    0.0000 H       1  UNL1        0.0660
     33 H           3.2562   -2.4762    0.0000 H       1  UNL1        0.0660
     34 H           4.1057   -2.6933    0.0000 H       1  UNL1        0.0660
     35 H           8.7501    2.3846    0.0000 H       1  UNL1        0.0660
     36 H           8.1301    3.0046    0.0000 H       1  UNL1        0.0660
     37 H           7.5101    2.3846    0.0000 H       1  UNL1        0.0660
     38 H           2.3079    0.3952    0.0000 H       1  UNL1        0.0660
     39 H           1.4619    0.1650    0.0000 H       1  UNL1        0.0660
     40 H           1.6921   -0.6810    0.0000 H       1  UNL1        0.0660
     41 H          10.7282   -2.7354    0.0000 H       1  UNL1        0.2921
@<TRIPOS>BOND
     1     1     9   ar
     2     1    10   ar
     3     2    11    1
     4     2    23    1
     5     3    13    1
     6     3    24    1
     7     4    16    1
     8     4    25    1
     9     5    14    1
    10     5    31    1
    11     6    12    2
    12     7    22    1
    13     7    41    1
    14     8     9   ar
    15     8    12   ar
    16     8    14   ar
    17     9    11   ar
    18    10    13   ar
    19    10    15    1
    20    11    16   ar
    21    12    13   ar
    22    14    17   ar
    23    15    18   ar
    24    15    19   ar
    25    16    17   ar
    26    17    26    1
    27    18    20   ar
    28    18    27    1
    29    19    21   ar
    30    19    28    1
    31    20    22   ar
    32    20    29    1
    33    21    22   ar
    34    21    30    1
    35    23    32    1
    36    23    33    1
    37    23    34    1
    38    24    35    1
    39    24    36    1
    40    24    37    1
    41    25    38    1
    42    25    39    1
    43    25    40    1
