@<TRIPOS>MOLECULE
IMPHY002121
 72 77 0 0 0
SMALL
GASTEIGER

@<TRIPOS>ATOM
      1 O           5.5954   -2.9096    0.0000 O.3     1  UNL1       -0.3448
      2 O           3.9300   -1.8284    0.0000 O.3     1  UNL1       -0.3480
      3 O           5.7968    0.8252    0.0000 O.2     1  UNL1       -0.2968
      4 O          10.1833    3.5014    0.0000 O.3     1  UNL1       -0.3892
      5 O          12.0027    2.4696    0.0000 O.3     1  UNL1       -0.3889
      6 C           6.6628   -0.6748    0.0000 C.3     1  UNL1        0.0349
      7 C           7.5288   -1.1748    0.0000 C.3     1  UNL1       -0.0228
      8 C           5.9258   -1.3418    0.0000 C.3     1  UNL1        0.0052
      9 C           8.3948   -0.6748    0.0000 C.3     1  UNL1       -0.0298
     10 C           6.3309   -2.2496    0.0000 C.3     1  UNL1        0.0664
     11 C           7.3196   -2.1466    0.0000 C.3     1  UNL1       -0.0222
     12 C           8.3948    0.3252    0.0000 C.3     1  UNL1       -0.0218
     13 C           4.9434   -1.4486    0.0000 C.3     1  UNL1        0.0164
     14 C           9.2888    0.8599    0.0000 C.3     1  UNL1       -0.0051
     15 C           4.7396   -2.4155    0.0000 C.3     1  UNL1        0.1732
     16 C           6.6628    0.3252    0.0000 C.2     1  UNL1        0.1401
     17 C           7.5288    0.8252    0.0000 C.3     1  UNL1        0.0103
     18 C           9.2888   -1.2094    0.0000 C.3     1  UNL1       -0.0311
     19 C           5.7968   -0.1748    0.0000 C.3     1  UNL1       -0.0522
     20 C          10.1949    0.3460    0.0000 C.2     1  UNL1       -0.0647
     21 C           9.2637    1.9446    0.0000 C.3     1  UNL1       -0.0150
     22 C           4.6359   -3.4101    0.0000 C.3     1  UNL1        0.0020
     23 C           4.2723   -0.7071    0.0000 C.3     1  UNL1       -0.0572
     24 C          10.1949   -0.6956    0.0000 C.2     1  UNL1       -0.0839
     25 C           8.4189    1.3532    0.0000 C.3     1  UNL1       -0.0555
     26 C          11.1386    0.8813    0.0000 C.3     1  UNL1       -0.0026
     27 C          10.1949    2.5015    0.0000 C.3     1  UNL1        0.0821
     28 C           3.7227   -3.8176    0.0000 C.3     1  UNL1       -0.0435
     29 C          11.1386    1.9663    0.0000 C.3     1  UNL1        0.0847
     30 C           2.9132   -3.2306    0.0000 C.3     1  UNL1       -0.0201
     31 C           3.0169   -2.2359    0.0000 C.3     1  UNL1        0.0535
     32 C           2.0000   -3.6381    0.0000 C.3     1  UNL1       -0.0603
     33 H           8.2158   -1.6753    0.0000 H       1  UNL1        0.0314
     34 H           5.5777   -0.5664    0.0000 H       1  UNL1        0.0339
     35 H           8.3883   -1.5247    0.0000 H       1  UNL1        0.0310
     36 H           6.6756   -3.0266    0.0000 H       1  UNL1        0.0600
     37 H           7.3187   -2.7666    0.0000 H       1  UNL1        0.0293
     38 H           7.9361   -2.2126    0.0000 H       1  UNL1        0.0293
     39 H           9.1342   -0.0941    0.0000 H       1  UNL1        0.0316
     40 H           4.3448   -1.6103    0.0000 H       1  UNL1        0.0354
     41 H           7.9274    1.3002    0.0000 H       1  UNL1        0.0345
     42 H           7.1303    1.3002    0.0000 H       1  UNL1        0.0345
     43 H           8.8842   -1.6792    0.0000 H       1  UNL1        0.0310
     44 H           9.6824   -1.6884    0.0000 H       1  UNL1        0.0310
     45 H           6.1068    0.3622    0.0000 H       1  UNL1        0.0239
     46 H           5.2598    0.1352    0.0000 H       1  UNL1        0.0239
     47 H           5.4868   -0.7117    0.0000 H       1  UNL1        0.0239
     48 H           9.0412    2.5233    0.0000 H       1  UNL1        0.0299
     49 H           8.6555    1.8244    0.0000 H       1  UNL1        0.0299
     50 H           4.7864   -4.0116    0.0000 H       1  UNL1        0.0317
     51 H           5.2544   -3.3663    0.0000 H       1  UNL1        0.0317
     52 H           4.7320   -0.2911    0.0000 H       1  UNL1        0.0234
     53 H           3.8562   -0.2475    0.0000 H       1  UNL1        0.0234
     54 H           3.8126   -1.1232    0.0000 H       1  UNL1        0.0234
     55 H          10.7306   -1.0076    0.0000 H       1  UNL1        0.0572
     56 H           8.7248    1.8925    0.0000 H       1  UNL1        0.0238
     57 H           7.8796    1.6590    0.0000 H       1  UNL1        0.0238
     58 H           8.1131    0.8139    0.0000 H       1  UNL1        0.0238
     59 H          11.3477    0.2976    0.0000 H       1  UNL1        0.0336
     60 H          11.7495    0.9874    0.0000 H       1  UNL1        0.0336
     61 H           9.6538    2.8042    0.0000 H       1  UNL1        0.0619
     62 H           3.2771   -4.2487    0.0000 H       1  UNL1        0.0270
     63 H           4.0699   -4.3313    0.0000 H       1  UNL1        0.0270
     64 H          11.1351    2.5863    0.0000 H       1  UNL1        0.0622
     65 H           2.4113   -2.8666    0.0000 H       1  UNL1        0.0320
     66 H           2.8664   -1.6345    0.0000 H       1  UNL1        0.0563
     67 H           2.3984   -2.2797    0.0000 H       1  UNL1        0.0563
     68 H           1.7473   -3.0719    0.0000 H       1  UNL1        0.0233
     69 H           1.4338   -3.8908    0.0000 H       1  UNL1        0.0233
     70 H           2.2527   -4.2043    0.0000 H       1  UNL1        0.0233
     71 H          10.7166    3.8176    0.0000 H       1  UNL1        0.2099
     72 H          12.5409    2.1617    0.0000 H       1  UNL1        0.2099
@<TRIPOS>BOND
     1     1    10    1
     2    15     1    1
     3     2    15    1
     4     2    31    1
     5     3    16    2
     6    27     4    1
     7     4    71    1
     8    29     5    1
     9     5    72    1
    10     6     7    1
    11     6     8    1
    12     6    16    1
    13     6    19    1
    14     7     9    1
    15     7    11    1
    16     7    33    1
    17     8    10    1
    18     8    13    1
    19     8    34    1
    20     9    12    1
    21     9    18    1
    22     9    35    1
    23    10    11    1
    24    10    36    1
    25    11    37    1
    26    11    38    1
    27    12    14    1
    28    12    17    1
    29    12    39    1
    30    13    15    1
    31    13    23    1
    32    13    40    1
    33    14    20    1
    34    14    21    1
    35    14    25    1
    36    15    22    1
    37    16    17    1
    38    17    41    1
    39    17    42    1
    40    18    24    1
    41    18    43    1
    42    18    44    1
    43    19    45    1
    44    19    46    1
    45    19    47    1
    46    20    24    2
    47    20    26    1
    48    21    27    1
    49    21    48    1
    50    21    49    1
    51    22    28    1
    52    22    50    1
    53    22    51    1
    54    23    52    1
    55    23    53    1
    56    23    54    1
    57    24    55    1
    58    25    56    1
    59    25    57    1
    60    25    58    1
    61    26    29    1
    62    26    59    1
    63    26    60    1
    64    27    29    1
    65    27    61    1
    66    28    30    1
    67    28    62    1
    68    28    63    1
    69    29    64    1
    70    30    31    1
    71    30    32    1
    72    30    65    1
    73    31    66    1
    74    31    67    1
    75    32    68    1
    76    32    69    1
    77    32    70    1
