@<TRIPOS>MOLECULE
IMPHY003123
 33 34 0 0 0
SMALL
GASTEIGER

@<TRIPOS>ATOM
      1 O           4.5981    1.7673    0.0000 O.3     1  UNL1       -0.4907
      2 O           2.8660    0.7673    0.0000 O.3     1  UNL1       -0.4885
      3 O           2.8660   -1.2327    0.0000 O.3     1  UNL1       -0.4913
      4 O           6.3465   -2.2673    0.0000 O.2     1  UNL1       -0.2670
      5 N           7.2641   -0.7535    0.0000 N.ar    1  UNL1       -0.3177
      6 C           5.4641    0.2673    0.0000 C.ar    1  UNL1        0.0342
      7 C           5.4641   -0.7327    0.0000 C.ar    1  UNL1        0.0538
      8 C           4.5981    0.7673    0.0000 C.ar    1  UNL1        0.1730
      9 C           6.3580   -1.2674    0.0000 C.ar    1  UNL1        0.2590
     10 C           4.5981   -1.2327    0.0000 C.ar    1  UNL1       -0.0032
     11 C           3.7320    0.2673    0.0000 C.ar    1  UNL1        0.2041
     12 C           6.3580    0.8020    0.0000 C.ar    1  UNL1       -0.0340
     13 C           3.7320   -0.7327    0.0000 C.ar    1  UNL1        0.1659
     14 C           7.2641    0.2881    0.0000 C.ar    1  UNL1        0.0083
     15 C           8.1282   -1.2568    0.0000 C.3     1  UNL1        0.0147
     16 C           3.7320    2.2673    0.0000 C.3     1  UNL1        0.0790
     17 C           2.0000    0.2673    0.0000 C.3     1  UNL1        0.0791
     18 C           2.8660   -2.2327    0.0000 C.3     1  UNL1        0.0790
     19 H           4.5981   -1.8527    0.0000 H       1  UNL1        0.0663
     20 H           6.3509    1.4219    0.0000 H       1  UNL1        0.0639
     21 H           7.7998    0.6002    0.0000 H       1  UNL1        0.0810
     22 H           7.8161   -1.7926    0.0000 H       1  UNL1        0.0457
     23 H           8.6639   -1.5689    0.0000 H       1  UNL1        0.0457
     24 H           8.4403   -0.7211    0.0000 H       1  UNL1        0.0457
     25 H           4.0420    2.8042    0.0000 H       1  UNL1        0.0660
     26 H           3.1951    2.5773    0.0000 H       1  UNL1        0.0660
     27 H           3.4220    1.7304    0.0000 H       1  UNL1        0.0660
     28 H           1.6900    0.8042    0.0000 H       1  UNL1        0.0660
     29 H           1.4631   -0.0427    0.0000 H       1  UNL1        0.0660
     30 H           2.3100   -0.2696    0.0000 H       1  UNL1        0.0660
     31 H           2.2460   -2.2327    0.0000 H       1  UNL1        0.0660
     32 H           2.8660   -2.8527    0.0000 H       1  UNL1        0.0660
     33 H           3.4860   -2.2327    0.0000 H       1  UNL1        0.0660
@<TRIPOS>BOND
     1     1     8    1
     2     1    16    1
     3     2    11    1
     4     2    17    1
     5     3    13    1
     6     3    18    1
     7     4     9    2
     8     5     9   ar
     9     5    14   ar
    10     5    15    1
    11     6     7   ar
    12     6     8   ar
    13     6    12   ar
    14     7     9   ar
    15     7    10   ar
    16     8    11   ar
    17    10    13   ar
    18    10    19    1
    19    11    13   ar
    20    12    14   ar
    21    12    20    1
    22    14    21    1
    23    15    22    1
    24    15    23    1
    25    15    24    1
    26    16    25    1
    27    16    26    1
    28    16    27    1
    29    17    28    1
    30    17    29    1
    31    17    30    1
    32    18    31    1
    33    18    32    1
    34    18    33    1
