@<TRIPOS>MOLECULE
IMPHY014010
 35 35 0 0 0
SMALL
GASTEIGER

@<TRIPOS>ATOM
      1 O           2.8660    1.0000    0.0000 O.3     1  UNL1       -0.4910
      2 O           4.5981    2.0000    0.0000 O.3     1  UNL1       -0.4884
      3 O           6.3301    1.0000    0.0000 O.3     1  UNL1       -0.4884
      4 O           6.3301   -1.0000    0.0000 O.3     1  UNL1       -0.4913
      5 C           3.7320   -0.5000    0.0000 C.ar    1  UNL1        0.0053
      6 C           3.7320    0.5000    0.0000 C.ar    1  UNL1        0.1689
      7 C           4.5981    1.0000    0.0000 C.ar    1  UNL1        0.2075
      8 C           2.8660   -1.0000    0.0000 C.3     1  UNL1       -0.0060
      9 C           4.5981   -1.0000    0.0000 C.ar    1  UNL1       -0.0091
     10 C           5.4641    0.5000    0.0000 C.ar    1  UNL1        0.2073
     11 C           5.4641   -0.5000    0.0000 C.ar    1  UNL1        0.1657
     12 C           2.8660   -2.0000    0.0000 C.2     1  UNL1       -0.0867
     13 C           2.0000    0.5000    0.0000 C.3     1  UNL1        0.0790
     14 C           5.4641    2.5000    0.0000 C.3     1  UNL1        0.0791
     15 C           7.1962    0.5000    0.0000 C.3     1  UNL1        0.0791
     16 C           6.3301   -2.0000    0.0000 C.3     1  UNL1        0.0790
     17 C           2.0000   -2.5000    0.0000 C.2     1  UNL1       -0.1023
     18 H           2.6540   -0.4174    0.0000 H       1  UNL1        0.0357
     19 H           2.2554   -1.1077    0.0000 H       1  UNL1        0.0357
     20 H           4.5981   -1.6200    0.0000 H       1  UNL1        0.0659
     21 H           3.4030   -2.3100    0.0000 H       1  UNL1        0.0570
     22 H           1.6900    1.0369    0.0000 H       1  UNL1        0.0660
     23 H           1.4631    0.1900    0.0000 H       1  UNL1        0.0660
     24 H           2.3100   -0.0369    0.0000 H       1  UNL1        0.0660
     25 H           5.7741    1.9631    0.0000 H       1  UNL1        0.0660
     26 H           6.0010    2.8100    0.0000 H       1  UNL1        0.0660
     27 H           5.1541    3.0369    0.0000 H       1  UNL1        0.0660
     28 H           6.8862   -0.0369    0.0000 H       1  UNL1        0.0660
     29 H           7.7331    0.1900    0.0000 H       1  UNL1        0.0660
     30 H           7.5062    1.0369    0.0000 H       1  UNL1        0.0660
     31 H           5.7101   -2.0000    0.0000 H       1  UNL1        0.0660
     32 H           6.3301   -2.6200    0.0000 H       1  UNL1        0.0660
     33 H           6.9501   -2.0000    0.0000 H       1  UNL1        0.0660
     34 H           1.4631   -2.1900    0.0000 H       1  UNL1        0.0532
     35 H           2.0000   -3.1200    0.0000 H       1  UNL1        0.0532
@<TRIPOS>BOND
     1     1     6    1
     2     1    13    1
     3     2     7    1
     4     2    14    1
     5     3    10    1
     6     3    15    1
     7     4    11    1
     8     4    16    1
     9     5     6   ar
    10     5     8    1
    11     5     9   ar
    12     6     7   ar
    13     7    10   ar
    14     8    12    1
    15     8    18    1
    16     8    19    1
    17     9    11   ar
    18     9    20    1
    19    10    11   ar
    20    12    17    2
    21    12    21    1
    22    13    22    1
    23    13    23    1
    24    13    24    1
    25    14    25    1
    26    14    26    1
    27    14    27    1
    28    15    28    1
    29    15    29    1
    30    15    30    1
    31    16    31    1
    32    16    32    1
    33    16    33    1
    34    17    34    1
    35    17    35    1
