@<TRIPOS>MOLECULE
IMPHY008874
 27 30 0 0 0
SMALL
GASTEIGER

@<TRIPOS>ATOM
      1 O           4.5981    2.5000    0.0000 O.2     1  UNL1       -0.2831
      2 O           2.8660    3.5000    0.0000 O.2     1  UNL1       -0.4682
      3 N           5.4641   -2.0000    0.0000 N.pl3   1  UNL1       -0.1942
      4 N           4.5981   -0.5000    0.0000 N.2     1  UNL1        0.0001
      5 N           5.4641    1.0000    0.0000 N.pl3   1  UNL1       -0.1985
      6 C           4.5981   -2.5000    0.0000 C.3     1  UNL1        0.1603
      7 C           4.5981   -3.5000    0.0000 C.3     1  UNL1        0.0467
      8 C           5.4641   -4.0000    0.0000 C.3     1  UNL1        0.0084
      9 C           6.3301   -2.5000    0.0000 C.3     1  UNL1        0.2021
     10 C           6.3301   -3.5000    0.0000 C.3     1  UNL1        0.0509
     11 C           3.7321   -2.0000    0.0000 C.3     1  UNL1        0.0507
     12 C           5.4641   -1.0000    0.0000 C.2     1  UNL1        0.3310
     13 C           6.3301   -0.5000    0.0000 C.ar    1  UNL1        0.1191
     14 C           6.3301    0.5000    0.0000 C.ar    1  UNL1        0.1427
     15 C           4.5981    0.5000    0.0000 C.2     1  UNL1        0.3324
     16 C           7.2241   -1.0347    0.0000 C.ar    1  UNL1        0.0108
     17 C           7.2241    1.0347    0.0000 C.ar    1  UNL1        0.0404
     18 C           3.7321    1.0000    0.0000 C.2     1  UNL1        0.1245
     19 C           8.1301   -0.5208    0.0000 C.ar    1  UNL1        0.0005
     20 C           8.1301    0.5208    0.0000 C.ar    1  UNL1        0.0035
     21 C           3.7321    2.0000    0.0000 C.2     1  UNL1        0.2363
     22 C           2.8660    0.5000    0.0000 C.2     1  UNL1        0.0108
     23 C           2.8660    2.5000    0.0000 C.2     1  UNL1        0.1776
     24 C           2.0000    1.0000    0.0000 C.2     1  UNL1        0.0036
     25 C           2.0000    2.0000    0.0000 C.2     1  UNL1        0.0402
     26 C           2.0000    4.0000    0.0000 C.3     1  UNL1        0.2526
     27 H           5.4641    1.6200    0.0000 H       1  UNL1        0.2985
@<TRIPOS>BOND
     1     1    21    2
     2     2    23    1
     3     2    26    1
     4     3     6    1
     5     3     9    1
     6     3    12    1
     7     4    12    2
     8     4    15    1
     9     5    14    1
    10     5    15    1
    11     5    27    1
    12     6     7    1
    13     6    11    1
    14     7     8    1
    15     8    10    1
    16     9    10    1
    17    12    13    1
    18    13    14   ar
    19    13    16   ar
    20    14    17   ar
    21    15    18    2
    22    16    19   ar
    23    17    20   ar
    24    18    21    1
    25    18    22    1
    26    19    20   ar
    27    21    23    1
    28    22    24    2
    29    23    25    2
    30    24    25    1
