@<TRIPOS>MOLECULE
IMPHY008726
 20 20 0 0 0
SMALL
GASTEIGER

@<TRIPOS>ATOM
      1 O           4.5981    2.5000    0.0000 O.2     1  UNL1       -0.3010
      2 C           2.8660    0.5000    0.0000 C.3     1  UNL1       -0.0213
      3 C           2.8660   -0.5000    0.0000 C.ar    1  UNL1       -0.0470
      4 C           3.7320    1.0000    0.0000 C.3     1  UNL1        0.0068
      5 C           2.0000   -1.0000    0.0000 C.ar    1  UNL1       -0.0586
      6 C           3.7320   -1.0000    0.0000 C.ar    1  UNL1       -0.0586
      7 C           2.0000   -2.0000    0.0000 C.ar    1  UNL1       -0.0615
      8 C           3.7320   -2.0000    0.0000 C.ar    1  UNL1       -0.0615
      9 C           2.8660   -2.5000    0.0000 C.ar    1  UNL1       -0.0617
     10 C           3.7320    2.0000    0.0000 C.2     1  UNL1        0.1206
     11 H           2.6540    1.0826    0.0000 H       1  UNL1        0.0317
     12 H           2.2554    0.3923    0.0000 H       1  UNL1        0.0317
     13 H           3.9441    0.4174    0.0000 H       1  UNL1        0.0342
     14 H           4.3426    1.1077    0.0000 H       1  UNL1        0.0342
     15 H           1.4631   -0.6900    0.0000 H       1  UNL1        0.0620
     16 H           4.2690   -0.6900    0.0000 H       1  UNL1        0.0620
     17 H           1.4631   -2.3100    0.0000 H       1  UNL1        0.0618
     18 H           4.2690   -2.3100    0.0000 H       1  UNL1        0.0618
     19 H           2.8660   -3.1200    0.0000 H       1  UNL1        0.0618
     20 H           3.1951    2.3100    0.0000 H       1  UNL1        0.1026
@<TRIPOS>BOND
     1     1    10    2
     2     2     3    1
     3     2     4    1
     4     2    11    1
     5     2    12    1
     6     3     5   ar
     7     3     6   ar
     8     4    10    1
     9     4    13    1
    10     4    14    1
    11     5     7   ar
    12     5    15    1
    13     6     8   ar
    14     6    16    1
    15     7     9   ar
    16     7    17    1
    17     8     9   ar
    18     8    18    1
    19     9    19    1
    20    10    20    1
