@<TRIPOS>MOLECULE
IMPHY010495
 93 98 0 0 0
SMALL
GASTEIGER

@<TRIPOS>ATOM
      1 O           6.7852    2.0980    0.0000 O.3     1  UNL1       -0.3585
      2 O           9.5679    1.2289    0.0000 O.3     1  UNL1       -0.4581
      3 O           5.1720    0.6954    0.0000 O.3     1  UNL1       -0.3888
      4 O           5.1643    2.6954    0.0000 O.3     1  UNL1       -0.3858
      5 O           8.6084    3.7522    0.0000 O.3     1  UNL1       -0.4494
      6 O           5.0839   -0.3505    0.0000 O.3     1  UNL1       -0.3832
      7 O           6.8896    4.4341    0.0000 O.3     1  UNL1       -0.4659
      8 O           5.3930    3.5623    0.0000 O.2     1  UNL1       -0.2475
      9 O          10.4016    2.7814    0.0000 O.2     1  UNL1       -0.2466
     10 O           6.8671   -3.4948    0.0000 O.2     1  UNL1       -0.4573
     11 O           5.0597   -2.4420    0.0000 O.2     1  UNL1       -0.2860
     12 O          10.3396    3.8063    0.0000 O.2     1  UNL1       -0.2508
     13 O           5.1350   -3.4948    0.0000 O.3     1  UNL1       -0.3313
     14 O           6.8671   -5.4948    0.0000 O.3     1  UNL1       -0.3829
     15 O           5.1350   -6.4948    0.0000 O.3     1  UNL1       -0.3864
     16 O           3.4030   -5.4948    0.0000 O.3     1  UNL1       -0.3865
     17 O           2.5369   -3.9948    0.0000 O.3     1  UNL1       -0.3924
     18 C           7.7681    1.2054    0.0000 C.3     1  UNL1        0.0469
     19 C           6.9040    0.7021    0.0000 C.3     1  UNL1        0.0079
     20 C           7.7643    2.2054    0.0000 C.3     1  UNL1        0.0603
     21 C           6.8920   -0.3395    0.0000 C.3     1  UNL1        0.0139
     22 C           6.8963    2.7020    0.0000 C.3     1  UNL1        0.2007
     23 C           8.6801    0.7021    0.0000 C.3     1  UNL1        0.1123
     24 C           6.0361    1.1987    0.0000 C.3     1  UNL1        0.0884
     25 C           7.7920   -0.8638    0.0000 C.3     1  UNL1       -0.0045
     26 C           7.1879    1.4068    0.0000 C.3     1  UNL1        0.0591
     27 C           6.0322    2.1987    0.0000 C.3     1  UNL1        0.1210
     28 C           8.6921   -0.3395    0.0000 C.3     1  UNL1       -0.0078
     29 C           8.6397    2.7527    0.0000 C.3     1  UNL1        0.2056
     30 C           5.9421   -0.8638    0.0000 C.3     1  UNL1        0.1268
     31 C           5.9079   -0.1621    0.0000 C.3     1  UNL1       -0.0559
     32 C           7.8046   -1.9487    0.0000 C.2     1  UNL1       -0.0235
     33 C           6.3930    3.5661    0.0000 C.2     1  UNL1        0.3423
     34 C           9.5476    2.2611    0.0000 C.2     1  UNL1        0.3491
     35 C           5.9295   -1.9487    0.0000 C.2     1  UNL1        0.2261
     36 C           6.8671   -2.4948    0.0000 C.2     1  UNL1        0.1681
     37 C           8.6744   -2.4420    0.0000 C.3     1  UNL1       -0.0397
     38 C           9.4584    4.2790    0.0000 C.2     1  UNL1        0.3081
     39 C           6.3863    5.2982    0.0000 C.3     1  UNL1        0.0818
     40 C           6.0010   -3.9948    0.0000 C.3     1  UNL1        0.2309
     41 C           9.4272    5.2785    0.0000 C.3     1  UNL1        0.0473
     42 C           6.0010   -4.9948    0.0000 C.3     1  UNL1        0.1454
     43 C          10.2771    5.8053    0.0000 C.3     1  UNL1       -0.0367
     44 C           5.1350   -5.4948    0.0000 C.3     1  UNL1        0.1152
     45 C           4.2690   -3.9948    0.0000 C.3     1  UNL1        0.1140
     46 C           4.2690   -4.9948    0.0000 C.3     1  UNL1        0.1120
     47 C          10.2459    6.8048    0.0000 C.3     1  UNL1       -0.0622
     48 C          11.1584    5.3326    0.0000 C.3     1  UNL1       -0.0622
     49 C           3.4030   -3.4948    0.0000 C.3     1  UNL1        0.0731
     50 H           6.1696    0.2742    0.0000 H       1  UNL1        0.0340
     51 H           8.6143    2.2087    0.0000 H       1  UNL1        0.0384
     52 H           9.4212    0.2858    0.0000 H       1  UNL1        0.0740
     53 H           5.4980    1.5066    0.0000 H       1  UNL1        0.0623
     54 H           8.5314   -1.2831    0.0000 H       1  UNL1        0.0354
     55 H           6.5857    1.2592    0.0000 H       1  UNL1        0.0567
     56 H           7.1589    0.7874    0.0000 H       1  UNL1        0.0567
     57 H           6.0298    2.8187    0.0000 H       1  UNL1        0.0654
     58 H           8.9079   -0.9207    0.0000 H       1  UNL1        0.0307
     59 H           9.3017   -0.2264    0.0000 H       1  UNL1        0.0307
     60 H           8.0928    3.0447    0.0000 H       1  UNL1        0.0857
     61 H           5.4010   -1.1665    0.0000 H       1  UNL1        0.0683
     62 H           6.0179    0.4481    0.0000 H       1  UNL1        0.0236
     63 H           5.2977   -0.0520    0.0000 H       1  UNL1        0.0236
     64 H           5.7978   -0.7722    0.0000 H       1  UNL1        0.0236
     65 H           4.6339    1.0033    0.0000 H       1  UNL1        0.2099
     66 H           4.6286    2.3833    0.0000 H       1  UNL1        0.2100
     67 H           8.3686   -2.9813    0.0000 H       1  UNL1        0.0276
     68 H           9.2138   -2.7479    0.0000 H       1  UNL1        0.0276
     69 H           8.9803   -1.9027    0.0000 H       1  UNL1        0.0276
     70 H           4.5422   -0.6522    0.0000 H       1  UNL1        0.2104
     71 H           6.9220    5.6102    0.0000 H       1  UNL1        0.0661
     72 H           6.0742    5.8339    0.0000 H       1  UNL1        0.0661
     73 H           5.8506    4.9861    0.0000 H       1  UNL1        0.0661
     74 H           6.0010   -3.3748    0.0000 H       1  UNL1        0.1084
     75 H           9.1970    5.8542    0.0000 H       1  UNL1        0.0380
     76 H           8.8202    5.1518    0.0000 H       1  UNL1        0.0380
     77 H           6.0010   -5.6148    0.0000 H       1  UNL1        0.0683
     78 H           9.7308    6.0984    0.0000 H       1  UNL1        0.0301
     79 H           4.5981   -5.8048    0.0000 H       1  UNL1        0.0648
     80 H           4.2690   -3.3748    0.0000 H       1  UNL1        0.0647
     81 H           3.7320   -4.6848    0.0000 H       1  UNL1        0.0647
     82 H          10.8656    6.8242    0.0000 H       1  UNL1        0.0232
     83 H          10.8653    4.7863    0.0000 H       1  UNL1        0.0232
     84 H          11.7047    5.0396    0.0000 H       1  UNL1        0.0232
     85 H          11.4514    5.8790    0.0000 H       1  UNL1        0.0232
     86 H          10.2265    7.4245    0.0000 H       1  UNL1        0.0232
     87 H           9.6262    6.7854    0.0000 H       1  UNL1        0.0232
     88 H           6.8671   -6.1148    0.0000 H       1  UNL1        0.2102
     89 H           3.8015   -3.0199    0.0000 H       1  UNL1        0.0584
     90 H           3.0044   -3.0199    0.0000 H       1  UNL1        0.0584
     91 H           4.5981   -6.8048    0.0000 H       1  UNL1        0.2100
     92 H           3.4030   -6.1148    0.0000 H       1  UNL1        0.2100
     93 H           2.0000   -3.6848    0.0000 H       1  UNL1        0.2095
@<TRIPOS>BOND
     1     1    22    1
     2     1    26    1
     3     2    23    1
     4     2    34    1
     5    24     3    1
     6     3    65    1
     7    27     4    1
     8     4    66    1
     9    29     5    1
    10     5    38    1
    11    30     6    1
    12     6    70    1
    13     7    33    1
    14     7    39    1
    15     8    33    2
    16     9    34    2
    17    10    36    1
    18    40    10    1
    19    11    35    2
    20    12    38    2
    21    13    40    1
    22    13    45    1
    23    42    14    1
    24    14    88    1
    25    44    15    1
    26    15    91    1
    27    46    16    1
    28    16    92    1
    29    17    49    1
    30    17    93    1
    31    18    19    1
    32    18    20    1
    33    18    23    1
    34    18    26    1
    35    19    21    1
    36    19    24    1
    37    19    50    1
    38    20    22    1
    39    20    29    1
    40    20    51    1
    41    21    25    1
    42    21    30    1
    43    21    31    1
    44    22    27    1
    45    22    33    1
    46    23    28    1
    47    23    52    1
    48    24    27    1
    49    24    53    1
    50    25    28    1
    51    25    32    1
    52    25    54    1
    53    26    55    1
    54    26    56    1
    55    27    57    1
    56    28    58    1
    57    28    59    1
    58    29    34    1
    59    29    60    1
    60    30    35    1
    61    30    61    1
    62    31    62    1
    63    31    63    1
    64    31    64    1
    65    32    36    2
    66    32    37    1
    67    35    36    1
    68    37    67    1
    69    37    68    1
    70    37    69    1
    71    38    41    1
    72    39    71    1
    73    39    72    1
    74    39    73    1
    75    40    42    1
    76    40    74    1
    77    41    43    1
    78    41    75    1
    79    41    76    1
    80    42    44    1
    81    42    77    1
    82    43    47    1
    83    43    48    1
    84    43    78    1
    85    44    46    1
    86    44    79    1
    87    45    46    1
    88    45    49    1
    89    45    80    1
    90    46    81    1
    91    47    82    1
    92    47    86    1
    93    47    87    1
    94    48    83    1
    95    48    84    1
    96    48    85    1
    97    49    89    1
    98    49    90    1
