@<TRIPOS>MOLECULE
IMPHY011500
 30 31 0 0 0
SMALL
GASTEIGER

@<TRIPOS>ATOM
      1 O           3.1133   -0.9177    0.0000 O.3     1  UNL1       -0.4614
      2 O           3.7057   -2.5453    0.0000 O.2     1  UNL1       -0.2512
      3 N           5.6253    1.6793    0.0000 N.3     1  UNL1       -0.2992
      4 C           6.3619    0.6967    0.0000 C.3     1  UNL1        0.0138
      5 C           6.1031   -0.2692    0.0000 C.3     1  UNL1        0.0138
      6 C           7.7608    0.1879    0.0000 C.3     1  UNL1       -0.0358
      7 C           7.5020   -0.7781    0.0000 C.3     1  UNL1       -0.0358
      8 C           4.3287    0.3856    0.0000 C.3     1  UNL1        0.0000
      9 C           4.8821   -1.1349    0.0000 C.3     1  UNL1        0.0000
     10 C           4.0530   -0.5757    0.0000 C.3     1  UNL1        0.1059
     11 C           5.1253    2.5453    0.0000 C.3     1  UNL1       -0.0122
     12 C           2.9397   -1.9025    0.0000 C.2     1  UNL1        0.3042
     13 C           2.0000   -2.2446    0.0000 C.3     1  UNL1        0.0332
     14 H           6.5819    1.5177    0.0000 H       1  UNL1        0.0464
     15 H           5.8831   -1.0903    0.0000 H       1  UNL1        0.0464
     16 H           8.3548    0.0101    0.0000 H       1  UNL1        0.0281
     17 H           7.9558    0.7764    0.0000 H       1  UNL1        0.0281
     18 H           7.3071   -1.3666    0.0000 H       1  UNL1        0.0281
     19 H           8.0960   -0.9558    0.0000 H       1  UNL1        0.0281
     20 H           4.3236    1.0055    0.0000 H       1  UNL1        0.0316
     21 H           3.7144    0.4693    0.0000 H       1  UNL1        0.0316
     22 H           4.4762   -1.6036    0.0000 H       1  UNL1        0.0316
     23 H           5.2987   -1.5940    0.0000 H       1  UNL1        0.0316
     24 H           3.5996   -0.1529    0.0000 H       1  UNL1        0.0735
     25 H           5.6622    2.8553    0.0000 H       1  UNL1        0.0391
     26 H           4.8153    3.0823    0.0000 H       1  UNL1        0.0391
     27 H           4.5884    2.2353    0.0000 H       1  UNL1        0.0391
     28 H           1.7880   -1.6620    0.0000 H       1  UNL1        0.0342
     29 H           1.4174   -2.4566    0.0000 H       1  UNL1        0.0342
     30 H           2.2120   -2.8272    0.0000 H       1  UNL1        0.0342
@<TRIPOS>BOND
     1     1    10    1
     2     1    12    1
     3     2    12    2
     4     3     4    1
     5     3     5    1
     6     3    11    1
     7     4     6    1
     8     4     8    1
     9     4    14    1
    10     5     7    1
    11     5     9    1
    12     5    15    1
    13     6     7    1
    14     6    16    1
    15     6    17    1
    16     7    18    1
    17     7    19    1
    18     8    10    1
    19     8    20    1
    20     8    21    1
    21     9    10    1
    22     9    22    1
    23     9    23    1
    24    10    24    1
    25    11    25    1
    26    11    26    1
    27    11    27    1
    28    12    13    1
    29    13    28    1
    30    13    29    1
    31    13    30    1
