@<TRIPOS>MOLECULE
IMPHY007530
 34 35 0 0 0
SMALL
GASTEIGER

@<TRIPOS>ATOM
      1 O           6.4103   -0.5057    0.0000 O.2     1  UNL1       -0.4549
      2 O           2.8660   -0.7010    0.0000 O.3     1  UNL1       -0.5059
      3 O           9.4939   -0.5670    0.0000 O.3     1  UNL1       -0.4600
      4 O           2.0000    0.7990    0.0000 O.2     1  UNL1       -0.2922
      5 O           9.4939   -2.2990    0.0000 O.2     1  UNL1       -0.2512
      6 C           5.4641    0.7990    0.0000 C.ar    1  UNL1        0.0216
      7 C           5.4641   -0.2010    0.0000 C.ar    1  UNL1        0.1392
      8 C           6.9939    0.2990    0.0000 C.ar    1  UNL1        0.1350
      9 C           6.4103    1.1038    0.0000 C.ar    1  UNL1       -0.0083
     10 C           4.5981    1.2990    0.0000 C.ar    1  UNL1       -0.0370
     11 C           3.7320    0.7990    0.0000 C.ar    1  UNL1        0.0593
     12 C           4.5981   -0.7010    0.0000 C.ar    1  UNL1        0.0234
     13 C           3.7320   -0.2010    0.0000 C.ar    1  UNL1        0.1308
     14 C           7.9939    0.2990    0.0000 C.2     1  UNL1        0.0249
     15 C           8.4939   -0.5670    0.0000 C.3     1  UNL1        0.1203
     16 C           2.8660    1.2990    0.0000 C.2     1  UNL1        0.1636
     17 C           8.4939    1.1651    0.0000 C.2     1  UNL1       -0.0888
     18 C           2.8660    2.2990    0.0000 C.3     1  UNL1       -0.0013
     19 C           9.9939   -1.4330    0.0000 C.2     1  UNL1        0.3043
     20 C          10.9939   -1.4330    0.0000 C.3     1  UNL1        0.0332
     21 H           6.6029    1.6931    0.0000 H       1  UNL1        0.0661
     22 H           4.5981    1.9190    0.0000 H       1  UNL1        0.0633
     23 H           4.5981   -1.3210    0.0000 H       1  UNL1        0.0691
     24 H           7.9113   -0.7790    0.0000 H       1  UNL1        0.0750
     25 H           8.6016   -1.1776    0.0000 H       1  UNL1        0.0750
     26 H           9.1139    1.1651    0.0000 H       1  UNL1        0.0540
     27 H           8.1839    1.7020    0.0000 H       1  UNL1        0.0540
     28 H           3.4860    2.2990    0.0000 H       1  UNL1        0.0309
     29 H           2.8660    2.9190    0.0000 H       1  UNL1        0.0309
     30 H           2.2460    2.2990    0.0000 H       1  UNL1        0.0309
     31 H           2.8660   -1.3210    0.0000 H       1  UNL1        0.2922
     32 H          10.9939   -2.0530    0.0000 H       1  UNL1        0.0342
     33 H          11.6139   -1.4330    0.0000 H       1  UNL1        0.0342
     34 H          10.9939   -0.8130    0.0000 H       1  UNL1        0.0342
@<TRIPOS>BOND
     1     1     7   ar
     2     1     8   ar
     3     2    13    1
     4     2    31    1
     5     3    15    1
     6     3    19    1
     7     4    16    2
     8     5    19    2
     9     6     7   ar
    10     6     9   ar
    11     6    10   ar
    12     7    12   ar
    13     8     9   ar
    14     8    14    1
    15     9    21    1
    16    10    11   ar
    17    10    22    1
    18    11    13   ar
    19    11    16    1
    20    12    13   ar
    21    12    23    1
    22    14    15    1
    23    14    17    2
    24    15    24    1
    25    15    25    1
    26    16    18    1
    27    17    26    1
    28    17    27    1
    29    18    28    1
    30    18    29    1
    31    18    30    1
    32    19    20    1
    33    20    32    1
    34    20    33    1
    35    20    34    1
