@<TRIPOS>MOLECULE
IMPHY012430
 45 47 0 0 0
SMALL
GASTEIGER

@<TRIPOS>ATOM
      1 O           3.3849    0.1380    0.0000 O.3     1  UNL1       -0.4603
      2 O           5.8745    0.0618    0.0000 O.3     1  UNL1       -0.4597
      3 O           9.3696   -0.1510    0.0000 O.3     1  UNL1       -0.3899
      4 O           6.2346    1.7560    0.0000 O.2     1  UNL1       -0.2501
      5 O           2.0000    1.2595    0.0000 O.2     1  UNL1       -0.2505
      6 N           8.1127   -2.4062    0.0000 N.3     1  UNL1       -0.2895
      7 C           8.1127   -1.4062    0.0000 C.3     1  UNL1        0.0611
      8 C           9.0589   -1.1015    0.0000 C.3     1  UNL1        0.0758
      9 C           4.5873    1.2207    0.0000 C.3     1  UNL1        0.1139
     10 C           9.0589   -2.7110    0.0000 C.3     1  UNL1        0.0023
     11 C           9.6425   -1.9062    0.0000 C.3     1  UNL1       -0.0122
     12 C           7.1616   -1.0972    0.0000 C.2     1  UNL1       -0.0158
     13 C           7.1616   -2.7152    0.0000 C.3     1  UNL1        0.0182
     14 C           3.7213    1.7207    0.0000 C.3     1  UNL1        0.0725
     15 C           4.3794    0.2426    0.0000 C.3     1  UNL1        0.1165
     16 C           6.5739   -1.9062    0.0000 C.2     1  UNL1       -0.0661
     17 C           6.8526   -0.1462    0.0000 C.3     1  UNL1        0.1152
     18 C           5.5655    1.0128    0.0000 C.2     1  UNL1        0.3177
     19 C           5.0873    2.0868    0.0000 C.3     1  UNL1       -0.0452
     20 C           2.9782    1.0516    0.0000 C.2     1  UNL1        0.3114
     21 C           3.6168    2.7152    0.0000 C.3     1  UNL1       -0.0511
     22 C           5.0485   -0.5006    0.0000 C.3     1  UNL1       -0.0266
     23 H           8.1135   -0.7862    0.0000 H       1  UNL1        0.0536
     24 H           9.6714   -1.0053    0.0000 H       1  UNL1        0.0612
     25 H           8.8079   -3.2779    0.0000 H       1  UNL1        0.0428
     26 H           9.5963   -3.0202    0.0000 H       1  UNL1        0.0428
     27 H          10.1034   -2.3210    0.0000 H       1  UNL1        0.0303
     28 H          10.1034   -1.4915    0.0000 H       1  UNL1        0.0303
     29 H           6.6247   -3.0253    0.0000 H       1  UNL1        0.0470
     30 H           7.4138   -3.2816    0.0000 H       1  UNL1        0.0470
     31 H           4.2413    2.0584    0.0000 H       1  UNL1        0.0423
     32 H           4.1572   -0.3362    0.0000 H       1  UNL1        0.0742
     33 H           5.9539   -1.9062    0.0000 H       1  UNL1        0.0586
     34 H           7.4666   -0.0599    0.0000 H       1  UNL1        0.0746
     35 H           6.8743    0.4735    0.0000 H       1  UNL1        0.0746
     36 H           5.6242    1.7768    0.0000 H       1  UNL1        0.0242
     37 H           5.3973    2.6237    0.0000 H       1  UNL1        0.0242
     38 H           4.5504    2.3968    0.0000 H       1  UNL1        0.0242
     39 H           4.2334    2.7800    0.0000 H       1  UNL1        0.0238
     40 H           3.5520    3.3318    0.0000 H       1  UNL1        0.0238
     41 H           3.0002    2.6504    0.0000 H       1  UNL1        0.0238
     42 H           4.5878   -0.9154    0.0000 H       1  UNL1        0.0265
     43 H           5.4634   -0.9613    0.0000 H       1  UNL1        0.0265
     44 H           5.5093   -0.0857    0.0000 H       1  UNL1        0.0265
     45 H           9.9763   -0.0231    0.0000 H       1  UNL1        0.2099
@<TRIPOS>BOND
     1     1    15    1
     2     1    20    1
     3     2    17    1
     4     2    18    1
     5     3     8    1
     6     3    45    1
     7     4    18    2
     8     5    20    2
     9     6     7    1
    10     6    10    1
    11     6    13    1
    12     7     8    1
    13     7    12    1
    14     7    23    1
    15     8    11    1
    16     8    24    1
    17     9    14    1
    18     9    15    1
    19     9    18    1
    20     9    19    1
    21    10    11    1
    22    10    25    1
    23    10    26    1
    24    11    27    1
    25    11    28    1
    26    12    16    2
    27    12    17    1
    28    13    16    1
    29    13    29    1
    30    13    30    1
    31    14    20    1
    32    14    21    1
    33    14    31    1
    34    15    22    1
    35    15    32    1
    36    16    33    1
    37    17    34    1
    38    17    35    1
    39    19    36    1
    40    19    37    1
    41    19    38    1
    42    21    39    1
    43    21    40    1
    44    21    41    1
    45    22    42    1
    46    22    43    1
    47    22    44    1
