@<TRIPOS>MOLECULE
IMPHY004657
 38 43 0 0 0
SMALL
GASTEIGER

@<TRIPOS>ATOM
      1 O           5.5740   -3.5278    0.0000 O.3     1  UNL1       -0.4526
      2 O           4.0684   -4.4125    0.0000 O.3     1  UNL1       -0.4526
      3 O           2.9950    3.5673    0.0000 O.3     1  UNL1       -0.4518
      4 O           4.4403    4.4167    0.0000 O.3     1  UNL1       -0.4526
      5 O           2.0520    1.8368    0.0000 O.2     1  UNL1       -0.2669
      6 N           2.9180    0.3368    0.0000 N.ar    1  UNL1       -0.3072
      7 C           2.0080   -0.1700    0.0000 C.3     1  UNL1        0.0307
      8 C           3.7841   -0.1632    0.0000 C.ar    1  UNL1        0.0530
      9 C           2.0000   -1.2116    0.0000 C.3     1  UNL1       -0.0088
     10 C           3.8001   -1.2047    0.0000 C.ar    1  UNL1        0.0055
     11 C           2.9021   -1.7324    0.0000 C.ar    1  UNL1       -0.0329
     12 C           3.7841    1.8368    0.0000 C.ar    1  UNL1        0.0920
     13 C           2.9180    1.3368    0.0000 C.ar    1  UNL1        0.2632
     14 C           4.6501    0.3368    0.0000 C.ar    1  UNL1       -0.0295
     15 C           4.6501    1.3368    0.0000 C.ar    1  UNL1       -0.0070
     16 C           4.7520   -1.7253    0.0000 C.ar    1  UNL1       -0.0068
     17 C           2.8937   -2.8174    0.0000 C.ar    1  UNL1       -0.0123
     18 C           3.7680    2.8783    0.0000 C.ar    1  UNL1        0.1791
     19 C           4.7688   -2.8102    0.0000 C.ar    1  UNL1        0.1669
     20 C           3.8334   -3.3599    0.0000 C.ar    1  UNL1        0.1665
     21 C           5.5601    1.8437    0.0000 C.ar    1  UNL1       -0.0501
     22 C           4.6660    3.4061    0.0000 C.ar    1  UNL1        0.1670
     23 C           5.5681    2.8853    0.0000 C.ar    1  UNL1       -0.0155
     24 C           5.1420   -4.5161    0.0000 C.3     1  UNL1        0.2332
     25 C           3.4096    4.5161    0.0000 C.3     1  UNL1        0.2333
     26 H           1.8035    0.4153    0.0000 H       1  UNL1        0.0496
     27 H           1.3964   -0.2714    0.0000 H       1  UNL1        0.0496
     28 H           1.3900   -1.1008    0.0000 H       1  UNL1        0.0331
     29 H           1.7864   -1.7937    0.0000 H       1  UNL1        0.0331
     30 H           5.1870    0.0268    0.0000 H       1  UNL1        0.0644
     31 H           5.2829   -1.4050    0.0000 H       1  UNL1        0.0662
     32 H           2.3556   -3.1253    0.0000 H       1  UNL1        0.0658
     33 H           6.0934    1.5275    0.0000 H       1  UNL1        0.0625
     34 H           6.1062    3.1932    0.0000 H       1  UNL1        0.0655
     35 H           5.0180   -5.1235    0.0000 H       1  UNL1        0.1166
     36 H           5.7331   -4.7033    0.0000 H       1  UNL1        0.1166
     37 H           3.5337    5.1235    0.0000 H       1  UNL1        0.1166
     38 H           2.8186    4.7033    0.0000 H       1  UNL1        0.1166
@<TRIPOS>BOND
     1     1    19    1
     2     1    24    1
     3     2    20    1
     4     2    24    1
     5     3    18    1
     6     3    25    1
     7     4    22    1
     8     4    25    1
     9     5    13    2
    10     6     7    1
    11     6     8   ar
    12     6    13   ar
    13     7     9    1
    14     7    26    1
    15     7    27    1
    16     8    10    1
    17     8    14   ar
    18     9    11    1
    19     9    28    1
    20     9    29    1
    21    10    11   ar
    22    10    16   ar
    23    11    17   ar
    24    12    13   ar
    25    12    15   ar
    26    12    18   ar
    27    14    15   ar
    28    14    30    1
    29    15    21   ar
    30    16    19   ar
    31    16    31    1
    32    17    20   ar
    33    17    32    1
    34    18    22   ar
    35    19    20   ar
    36    21    23   ar
    37    21    33    1
    38    22    23   ar
    39    23    34    1
    40    24    35    1
    41    24    36    1
    42    25    37    1
    43    25    38    1
