@<TRIPOS>MOLECULE
IMPHY013215
 52 56 0 0 0
SMALL
GASTEIGER

@<TRIPOS>ATOM
      1 O          11.8342    1.0148    0.0000 O.3     1  UNL1       -0.4814
      2 O           3.9080   -2.5610    0.0000 O.3     1  UNL1       -0.4816
      3 O           8.2982    1.0426    0.0000 O.2     1  UNL1       -0.4613
      4 O          10.0582   -1.9921    0.0000 O.3     1  UNL1       -0.5058
      5 O           8.3098   -2.0266    0.0000 O.2     1  UNL1       -0.2863
      6 C          11.8423    2.0564    0.0000 C.3     1  UNL1        0.1235
      7 C           3.0000   -2.0506    0.0000 C.3     1  UNL1        0.1235
      8 C          10.0582    1.0079    0.0000 C.ar    1  UNL1        0.0597
      9 C          10.9242    0.5079    0.0000 C.ar    1  UNL1        0.1359
     10 C           9.1922    0.5079    0.0000 C.ar    1  UNL1        0.1525
     11 C          10.9402    2.5772    0.0000 C.2     1  UNL1       -0.0408
     12 C           9.1922   -0.4921    0.0000 C.ar    1  UNL1        0.1066
     13 C          10.0421    2.0495    0.0000 C.2     1  UNL1       -0.0478
     14 C           4.7960   -1.0229    0.0000 C.ar    1  UNL1        0.0171
     15 C          12.3456    2.9205    0.0000 C.3     1  UNL1       -0.0215
     16 C          12.8422    2.0525    0.0000 C.3     1  UNL1       -0.0215
     17 C           4.7999   -2.0229    0.0000 C.ar    1  UNL1        0.1289
     18 C           7.3922   -0.5129    0.0000 C.ar    1  UNL1        0.0644
     19 C           6.5281   -1.0162    0.0000 C.ar    1  UNL1       -0.0105
     20 C           2.9960   -1.0090    0.0000 C.2     1  UNL1       -0.0409
     21 C          10.9242   -0.4921    0.0000 C.ar    1  UNL1        0.0231
     22 C           8.2982   -1.0267    0.0000 C.ar    1  UNL1        0.2037
     23 C          10.0582   -0.9921    0.0000 C.ar    1  UNL1        0.1347
     24 C           5.6601   -0.5195    0.0000 C.ar    1  UNL1       -0.0432
     25 C           2.0000   -2.0583    0.0000 C.3     1  UNL1       -0.0215
     26 C           2.5067   -2.9205    0.0000 C.3     1  UNL1       -0.0215
     27 C           3.9000   -0.4917    0.0000 C.2     1  UNL1       -0.0513
     28 C           5.6678   -2.5195    0.0000 C.ar    1  UNL1       -0.0187
     29 C           6.5319   -2.0162    0.0000 C.ar    1  UNL1       -0.0503
     30 C           7.3922    0.5288    0.0000 C.ar    1  UNL1        0.1039
     31 H          10.9378    3.1972    0.0000 H       1  UNL1        0.0611
     32 H           9.5016    2.3532    0.0000 H       1  UNL1        0.0624
     33 H          12.8813    2.6084    0.0000 H       1  UNL1        0.0271
     34 H          12.6577    3.4562    0.0000 H       1  UNL1        0.0271
     35 H          11.8098    3.2325    0.0000 H       1  UNL1        0.0271
     36 H          12.8399    1.4325    0.0000 H       1  UNL1        0.0271
     37 H          13.4622    2.0502    0.0000 H       1  UNL1        0.0271
     38 H          12.8446    2.6725    0.0000 H       1  UNL1        0.0271
     39 H           2.4590   -0.6990    0.0000 H       1  UNL1        0.0611
     40 H          11.4612   -0.8021    0.0000 H       1  UNL1        0.0691
     41 H           5.6577    0.1004    0.0000 H       1  UNL1        0.0631
     42 H           1.9952   -1.4384    0.0000 H       1  UNL1        0.0271
     43 H           1.3800   -2.0631    0.0000 H       1  UNL1        0.0271
     44 H           2.0048   -2.6783    0.0000 H       1  UNL1        0.0271
     45 H           1.9674   -2.6146    0.0000 H       1  UNL1        0.0271
     46 H           2.2008   -3.4598    0.0000 H       1  UNL1        0.0271
     47 H           3.0460   -3.2263    0.0000 H       1  UNL1        0.0271
     48 H           3.9048    0.1283    0.0000 H       1  UNL1        0.0623
     49 H           5.6702   -3.1395    0.0000 H       1  UNL1        0.0654
     50 H           7.0700   -2.3241    0.0000 H       1  UNL1        0.0625
     51 H           6.8564    0.8408    0.0000 H       1  UNL1        0.1037
     52 H          10.5951   -2.3021    0.0000 H       1  UNL1        0.2922
@<TRIPOS>BOND
     1     1     6    1
     2     1     9    1
     3     2     7    1
     4     2    17    1
     5     3    10   ar
     6     3    30   ar
     7     4    23    1
     8     4    52    1
     9     5    22    2
    10     6    11    1
    11     6    15    1
    12     6    16    1
    13     7    20    1
    14     7    25    1
    15     7    26    1
    16     8     9   ar
    17     8    10   ar
    18     8    13    1
    19     9    21   ar
    20    10    12   ar
    21    11    13    2
    22    11    31    1
    23    12    22   ar
    24    12    23   ar
    25    13    32    1
    26    14    17   ar
    27    14    24   ar
    28    14    27    1
    29    15    33    1
    30    15    34    1
    31    15    35    1
    32    16    36    1
    33    16    37    1
    34    16    38    1
    35    17    28   ar
    36    18    19    1
    37    18    22   ar
    38    18    30   ar
    39    19    24   ar
    40    19    29   ar
    41    20    27    2
    42    20    39    1
    43    21    23   ar
    44    21    40    1
    45    24    41    1
    46    25    42    1
    47    25    43    1
    48    25    44    1
    49    26    45    1
    50    26    46    1
    51    26    47    1
    52    27    48    1
    53    28    29   ar
    54    28    49    1
    55    29    50    1
    56    30    51    1
