@<TRIPOS>MOLECULE
IMPHY017360
 26 27 0 0 0
SMALL
GASTEIGER

@<TRIPOS>ATOM
      1 O           2.0540    0.5828    0.0000 O.3     1  UNL1       -0.3910
      2 C           4.6751   -0.1874    0.0000 C.3     1  UNL1       -0.0332
      3 C           3.3024   -0.7795    0.0000 C.3     1  UNL1       -0.0058
      4 C           4.9339    0.7785    0.0000 C.3     1  UNL1       -0.0142
      5 C           2.9603    0.1602    0.0000 C.3     1  UNL1        0.0634
      6 C           4.1973    1.7611    0.0000 C.3     1  UNL1       -0.0444
      7 C           6.0740   -0.6963    0.0000 C.3     1  UNL1       -0.0493
      8 C           6.3328    0.2697    0.0000 C.3     1  UNL1       -0.0476
      9 C           2.4277   -1.2643    0.0000 C.3     1  UNL1       -0.0572
     10 C           3.4932   -1.7611    0.0000 C.3     1  UNL1       -0.0572
     11 H           4.6999   -1.0371    0.0000 H       1  UNL1        0.0307
     12 H           4.9147   -0.0713    0.0000 H       1  UNL1        0.0326
     13 H           3.0167    1.0084    0.0000 H       1  UNL1        0.0601
     14 H           4.5151    2.2934    0.0000 H       1  UNL1        0.0272
     15 H           3.5841    1.8530    0.0000 H       1  UNL1        0.0272
     16 H           5.8791   -1.2848    0.0000 H       1  UNL1        0.0268
     17 H           6.6680   -0.8740    0.0000 H       1  UNL1        0.0268
     18 H           6.9268    0.0919    0.0000 H       1  UNL1        0.0269
     19 H           6.5278    0.8582    0.0000 H       1  UNL1        0.0269
     20 H           2.1272   -0.7220    0.0000 H       1  UNL1        0.0236
     21 H           1.8855   -1.5649    0.0000 H       1  UNL1        0.0236
     22 H           2.7283   -1.8065    0.0000 H       1  UNL1        0.0236
     23 H           2.8846   -1.8794    0.0000 H       1  UNL1        0.0236
     24 H           3.6115   -2.3697    0.0000 H       1  UNL1        0.0236
     25 H           4.1018   -1.6428    0.0000 H       1  UNL1        0.0236
     26 H           2.0000    1.2005    0.0000 H       1  UNL1        0.2098
@<TRIPOS>BOND
     1     1     5    1
     2     1    26    1
     3     2     3    1
     4     2     6    1
     5     2     7    1
     6     2    11    1
     7     3     5    1
     8     3     9    1
     9     3    10    1
    10     4     5    1
    11     4     6    1
    12     4     8    1
    13     4    12    1
    14     5    13    1
    15     6    14    1
    16     6    15    1
    17     7     8    1
    18     7    16    1
    19     7    17    1
    20     8    18    1
    21     8    19    1
    22     9    20    1
    23     9    21    1
    24     9    22    1
    25    10    23    1
    26    10    24    1
    27    10    25    1
