@<TRIPOS>MOLECULE
IMPHY005851
 29 31 0 0 0
SMALL
GASTEIGER

@<TRIPOS>ATOM
      1 O           7.3424    0.8220    0.0000 O.2     1  UNL1       -0.4596
      2 O           3.7702    1.0520    0.0000 O.2     1  UNL1       -0.4217
      3 O           2.0000    1.0414    0.0000 O.2     1  UNL1       -0.2452
      4 C           4.6641   -0.4827    0.0000 C.ar    1  UNL1        0.0216
      5 C           6.3961   -0.4827    0.0000 C.ar    1  UNL1        0.0215
      6 C           6.3961    0.5173    0.0000 C.ar    1  UNL1        0.1416
      7 C           5.5301    1.0173    0.0000 C.ar    1  UNL1        0.0353
      8 C           4.6641    0.5173    0.0000 C.ar    1  UNL1        0.1457
      9 C           5.5301   -0.9827    0.0000 C.ar    1  UNL1       -0.0400
     10 C           3.7702   -1.0174    0.0000 C.ar    1  UNL1       -0.0330
     11 C           7.3424   -0.7874    0.0000 C.ar    1  UNL1       -0.0132
     12 C           7.9260    0.0173    0.0000 C.ar    1  UNL1        0.1033
     13 C           5.5301    2.0173    0.0000 C.3     1  UNL1       -0.0327
     14 C           2.8641   -0.5035    0.0000 C.ar    1  UNL1        0.0265
     15 C           3.7817   -2.0173    0.0000 C.3     1  UNL1       -0.0388
     16 C           2.8641    0.5381    0.0000 C.ar    1  UNL1        0.3375
     17 C           8.9260    0.0173    0.0000 C.3     1  UNL1       -0.0063
     18 H           5.5301   -1.6027    0.0000 H       1  UNL1        0.0632
     19 H           7.5350   -1.3768    0.0000 H       1  UNL1        0.0658
     20 H           6.1501    2.0173    0.0000 H       1  UNL1        0.0280
     21 H           5.5301    2.6373    0.0000 H       1  UNL1        0.0280
     22 H           4.9101    2.0173    0.0000 H       1  UNL1        0.0280
     23 H           2.3284   -0.8156    0.0000 H       1  UNL1        0.0692
     24 H           3.1618   -2.0245    0.0000 H       1  UNL1        0.0278
     25 H           3.7889   -2.6373    0.0000 H       1  UNL1        0.0278
     26 H           4.4017   -2.0101    0.0000 H       1  UNL1        0.0278
     27 H           8.9260   -0.6027    0.0000 H       1  UNL1        0.0308
     28 H           9.5460    0.0173    0.0000 H       1  UNL1        0.0308
     29 H           8.9260    0.6373    0.0000 H       1  UNL1        0.0308
@<TRIPOS>BOND
     1     1     6   ar
     2     1    12   ar
     3     2     8   ar
     4     2    16   ar
     5     3    16    2
     6     4     8   ar
     7     4     9   ar
     8     4    10   ar
     9     5     6   ar
    10     5     9   ar
    11     5    11   ar
    12     6     7   ar
    13     7     8   ar
    14     7    13    1
    15     9    18    1
    16    10    14   ar
    17    10    15    1
    18    11    12   ar
    19    11    19    1
    20    12    17    1
    21    13    20    1
    22    13    21    1
    23    13    22    1
    24    14    16   ar
    25    14    23    1
    26    15    24    1
    27    15    25    1
    28    15    26    1
    29    17    27    1
    30    17    28    1
    31    17    29    1
