@<TRIPOS>MOLECULE
IMPHY002127
 94 100 0 0 0
SMALL
GASTEIGER

@<TRIPOS>ATOM
      1 O          11.3879   -0.0589    0.0000 O.3     1  UNL1       -0.4602
      2 O           6.6475    0.0589    0.0000 O.3     1  UNL1       -0.4602
      3 O          10.7955    1.5687    0.0000 O.2     1  UNL1       -0.2505
      4 O           7.2399   -1.5687    0.0000 O.2     1  UNL1       -0.2505
      5 O          14.0745   -1.7450    0.0000 O.3     1  UNL1       -0.4676
      6 O           3.9609    1.7450    0.0000 O.3     1  UNL1       -0.4676
      7 O          12.3435   -1.8054    0.0000 O.2     1  UNL1       -0.2504
      8 O           5.6919    1.8054    0.0000 O.2     1  UNL1       -0.2504
      9 N          13.8999    2.5381    0.0000 N.3     1  UNL1       -0.2984
     10 N           4.1356   -2.5381    0.0000 N.3     1  UNL1       -0.2984
     11 C           9.6822    0.2418    0.0000 C.3     1  UNL1        0.0715
     12 C           8.3532   -0.2418    0.0000 C.3     1  UNL1        0.0715
     13 C           8.7759    0.6645    0.0000 C.3     1  UNL1        0.0111
     14 C           9.2596   -0.6645    0.0000 C.3     1  UNL1        0.0111
     15 C          14.3777    0.5896    0.0000 C.3     1  UNL1        0.0268
     16 C           3.6578   -0.5896    0.0000 C.3     1  UNL1        0.0268
     17 C           3.3989   -1.5555    0.0000 C.3     1  UNL1        0.0138
     18 C          14.6365    1.5555    0.0000 C.3     1  UNL1        0.0138
     19 C          13.1566   -0.2761    0.0000 C.3     1  UNL1        0.1087
     20 C           4.8788    0.2761    0.0000 C.3     1  UNL1        0.1087
     21 C          12.3276    0.2831    0.0000 C.3     1  UNL1        0.1188
     22 C           5.7078   -0.2831    0.0000 C.3     1  UNL1        0.1188
     23 C          12.6032    1.2444    0.0000 C.3     1  UNL1        0.0008
     24 C           5.4322   -1.2444    0.0000 C.3     1  UNL1        0.0008
     25 C           2.2588   -0.0807    0.0000 C.3     1  UNL1       -0.0350
     26 C          15.7766    0.0807    0.0000 C.3     1  UNL1       -0.0350
     27 C          16.0354    1.0467    0.0000 C.3     1  UNL1       -0.0358
     28 C           2.0000   -1.0467    0.0000 C.3     1  UNL1       -0.0358
     29 C           7.4136   -0.5839    0.0000 C.2     1  UNL1        0.3117
     30 C          10.6219    0.5839    0.0000 C.2     1  UNL1        0.3117
     31 C           8.4338    1.6042    0.0000 C.ar    1  UNL1       -0.0427
     32 C           9.6016   -1.6042    0.0000 C.ar    1  UNL1       -0.0427
     33 C           4.6356   -3.4041    0.0000 C.3     1  UNL1       -0.0122
     34 C          13.3999    3.4041    0.0000 C.3     1  UNL1       -0.0122
     35 C           4.8439    1.2755    0.0000 C.2     1  UNL1        0.3150
     36 C          13.1915   -1.2755    0.0000 C.2     1  UNL1        0.3150
     37 C          10.5864   -1.7778    0.0000 C.ar    1  UNL1       -0.0583
     38 C           9.0766    2.3702    0.0000 C.ar    1  UNL1       -0.0583
     39 C           8.9588   -2.3702    0.0000 C.ar    1  UNL1       -0.0583
     40 C           7.4490    1.7778    0.0000 C.ar    1  UNL1       -0.0583
     41 C           8.7346    3.3099    0.0000 C.ar    1  UNL1       -0.0615
     42 C          10.9284   -2.7175    0.0000 C.ar    1  UNL1       -0.0615
     43 C           7.1070    2.7175    0.0000 C.ar    1  UNL1       -0.0615
     44 C           9.3008   -3.3099    0.0000 C.ar    1  UNL1       -0.0615
     45 C           7.7498    3.4835    0.0000 C.ar    1  UNL1       -0.0617
     46 C          10.2856   -3.4835    0.0000 C.ar    1  UNL1       -0.0617
     47 C           3.9260    2.7444    0.0000 C.3     1  UNL1        0.0817
     48 C          14.1094   -2.7444    0.0000 C.3     1  UNL1        0.0817
     49 H          10.1010   -0.2153    0.0000 H       1  UNL1        0.0426
     50 H           8.3262   -0.8613    0.0000 H       1  UNL1        0.0426
     51 H           8.1565    0.6915    0.0000 H       1  UNL1        0.0365
     52 H           8.8024   -1.0833    0.0000 H       1  UNL1        0.0365
     53 H          14.4605   -0.0249    0.0000 H       1  UNL1        0.0472
     54 H           3.5750    0.0249    0.0000 H       1  UNL1        0.0472
     55 H          15.0058    2.0535    0.0000 H       1  UNL1        0.0464
     56 H           3.4599   -0.9385    0.0000 H       1  UNL1        0.0464
     57 H          12.6144   -0.5767    0.0000 H       1  UNL1        0.0466
     58 H           5.4210    0.5767    0.0000 H       1  UNL1        0.0466
     59 H          12.2520   -0.3323    0.0000 H       1  UNL1        0.0743
     60 H           5.7834    0.3323    0.0000 H       1  UNL1        0.0743
     61 H           5.4372   -1.8643    0.0000 H       1  UNL1        0.0316
     62 H           6.0465   -1.3282    0.0000 H       1  UNL1        0.0316
     63 H          12.5982    1.8643    0.0000 H       1  UNL1        0.0316
     64 H          11.9889    1.3281    0.0000 H       1  UNL1        0.0316
     65 H           2.4538    0.5078    0.0000 H       1  UNL1        0.0281
     66 H           1.6648    0.0970    0.0000 H       1  UNL1        0.0281
     67 H          15.5817   -0.5078    0.0000 H       1  UNL1        0.0281
     68 H          16.3706   -0.0970    0.0000 H       1  UNL1        0.0281
     69 H           1.4060   -0.8689    0.0000 H       1  UNL1        0.0281
     70 H           1.8051   -1.6352    0.0000 H       1  UNL1        0.0281
     71 H          16.6294    0.8689    0.0000 H       1  UNL1        0.0281
     72 H          16.2304    1.6352    0.0000 H       1  UNL1        0.0281
     73 H          13.9368    3.7141    0.0000 H       1  UNL1        0.0391
     74 H          13.0899    3.9411    0.0000 H       1  UNL1        0.0391
     75 H          12.8629    3.0941    0.0000 H       1  UNL1        0.0391
     76 H           4.0986   -3.7141    0.0000 H       1  UNL1        0.0391
     77 H           4.9456   -3.9411    0.0000 H       1  UNL1        0.0391
     78 H           5.1725   -3.0941    0.0000 H       1  UNL1        0.0391
     79 H          10.9849   -1.3029    0.0000 H       1  UNL1        0.0620
     80 H           9.6872    2.2625    0.0000 H       1  UNL1        0.0620
     81 H           8.3482   -2.2625    0.0000 H       1  UNL1        0.0620
     82 H           7.0505    1.3029    0.0000 H       1  UNL1        0.0620
     83 H           9.1331    3.7848    0.0000 H       1  UNL1        0.0618
     84 H          11.5390   -2.8252    0.0000 H       1  UNL1        0.0618
     85 H           6.4964    2.8252    0.0000 H       1  UNL1        0.0618
     86 H           8.9023   -3.7848    0.0000 H       1  UNL1        0.0618
     87 H           7.5378    4.0662    0.0000 H       1  UNL1        0.0618
     88 H          10.4977   -4.0662    0.0000 H       1  UNL1        0.0618
     89 H          13.4898   -2.7660    0.0000 H       1  UNL1        0.0661
     90 H          14.1310   -3.3640    0.0000 H       1  UNL1        0.0661
     91 H          14.7290   -2.7227    0.0000 H       1  UNL1        0.0661
     92 H           4.5457    2.7660    0.0000 H       1  UNL1        0.0661
     93 H           3.9044    3.3640    0.0000 H       1  UNL1        0.0661
     94 H           3.3064    2.7227    0.0000 H       1  UNL1        0.0661
@<TRIPOS>BOND
     1     1    21    1
     2     1    30    1
     3     2    22    1
     4     2    29    1
     5     3    30    2
     6     4    29    2
     7     5    36    1
     8     5    48    1
     9     6    35    1
    10     6    47    1
    11     7    36    2
    12     8    35    2
    13     9    15    1
    14     9    18    1
    15     9    34    1
    16    10    16    1
    17    10    17    1
    18    10    33    1
    19    11    13    1
    20    11    14    1
    21    11    30    1
    22    11    49    1
    23    12    13    1
    24    12    14    1
    25    12    29    1
    26    12    50    1
    27    13    31    1
    28    13    51    1
    29    14    32    1
    30    14    52    1
    31    15    19    1
    32    15    26    1
    33    15    53    1
    34    16    20    1
    35    16    25    1
    36    16    54    1
    37    17    24    1
    38    17    28    1
    39    17    56    1
    40    18    23    1
    41    18    27    1
    42    18    55    1
    43    19    21    1
    44    19    36    1
    45    19    57    1
    46    20    22    1
    47    20    35    1
    48    20    58    1
    49    21    23    1
    50    21    59    1
    51    22    24    1
    52    22    60    1
    53    23    63    1
    54    23    64    1
    55    24    61    1
    56    24    62    1
    57    25    28    1
    58    25    65    1
    59    25    66    1
    60    26    27    1
    61    26    67    1
    62    26    68    1
    63    27    71    1
    64    27    72    1
    65    28    69    1
    66    28    70    1
    67    31    38   ar
    68    31    40   ar
    69    32    37   ar
    70    32    39   ar
    71    33    76    1
    72    33    77    1
    73    33    78    1
    74    34    73    1
    75    34    74    1
    76    34    75    1
    77    37    42   ar
    78    37    79    1
    79    38    41   ar
    80    38    80    1
    81    39    44   ar
    82    39    81    1
    83    40    43   ar
    84    40    82    1
    85    41    45   ar
    86    41    83    1
    87    42    46   ar
    88    42    84    1
    89    43    45   ar
    90    43    85    1
    91    44    46   ar
    92    44    86    1
    93    45    87    1
    94    46    88    1
    95    47    92    1
    96    47    93    1
    97    47    94    1
    98    48    89    1
    99    48    90    1
   100    48    91    1
