@<TRIPOS>MOLECULE
IMPHY009316
 34 37 0 0 0
SMALL
GASTEIGER

@<TRIPOS>ATOM
      1 N           4.6681    2.1062    0.0000 N.3     1  UNL1       -0.2940
      2 N           5.6561   -2.0839    0.0000 N.ar    1  UNL1       -0.3604
      3 C           4.6520    1.0647    0.0000 C.3     1  UNL1        0.0403
      4 C           5.5180    0.5647    0.0000 C.3     1  UNL1       -0.0059
      5 C           3.7860    0.5647    0.0000 C.2     1  UNL1       -0.0219
      6 C           5.5180   -0.4353    0.0000 C.ar    1  UNL1       -0.0200
      7 C           4.6520   -0.9353    0.0000 C.ar    1  UNL1        0.0103
      8 C           3.7860   -0.4353    0.0000 C.ar    1  UNL1       -0.0109
      9 C           3.7700    2.6340    0.0000 C.3     1  UNL1        0.0238
     10 C           2.8760    1.0716    0.0000 C.2     1  UNL1       -0.0526
     11 C           4.6681   -1.9768    0.0000 C.ar    1  UNL1        0.0473
     12 C           2.8680    2.1132    0.0000 C.2     1  UNL1       -0.0401
     13 C           6.1360   -1.2136    0.0000 C.ar    1  UNL1        0.0060
     14 C           5.5398    2.5962    0.0000 C.3     1  UNL1       -0.0118
     15 C           2.8760   -0.9421    0.0000 C.ar    1  UNL1       -0.0536
     16 C           3.7700   -2.5045    0.0000 C.ar    1  UNL1       -0.0378
     17 C           2.8680   -1.9837    0.0000 C.ar    1  UNL1       -0.0592
     18 C           2.0000    2.6098    0.0000 C.2     1  UNL1       -0.0943
     19 H           5.3914    1.4841    0.0000 H       1  UNL1        0.0516
     20 H           6.1286    0.4571    0.0000 H       1  UNL1        0.0332
     21 H           5.7301    1.1474    0.0000 H       1  UNL1        0.0332
     22 H           4.1710    3.1069    0.0000 H       1  UNL1        0.0476
     23 H           3.3727    3.1100    0.0000 H       1  UNL1        0.0476
     24 H           2.3427    0.7554    0.0000 H       1  UNL1        0.0624
     25 H           6.7538   -1.1619    0.0000 H       1  UNL1        0.0810
     26 H           5.8436    2.0557    0.0000 H       1  UNL1        0.0391
     27 H           6.0803    2.9000    0.0000 H       1  UNL1        0.0391
     28 H           5.2360    3.1367    0.0000 H       1  UNL1        0.0391
     29 H           2.3427   -0.6259    0.0000 H       1  UNL1        0.0624
     30 H           5.9421   -2.6340    0.0000 H       1  UNL1        0.1653
     31 H           3.7724   -3.1245    0.0000 H       1  UNL1        0.0638
     32 H           2.3298   -2.2916    0.0000 H       1  UNL1        0.0618
     33 H           1.9976    3.2298    0.0000 H       1  UNL1        0.0538
     34 H           1.4643    2.2978    0.0000 H       1  UNL1        0.0538
@<TRIPOS>BOND
     1     1     3    1
     2     1     9    1
     3     1    14    1
     4     2    11   ar
     5     2    13   ar
     6     2    30    1
     7     3     4    1
     8     3     5    1
     9     3    19    1
    10     4     6    1
    11     4    20    1
    12     4    21    1
    13     5     8    1
    14     5    10    2
    15     6     7   ar
    16     6    13   ar
    17     7     8   ar
    18     7    11   ar
    19     8    15   ar
    20     9    12    1
    21     9    22    1
    22     9    23    1
    23    10    12    1
    24    10    24    1
    25    11    16   ar
    26    12    18    2
    27    13    25    1
    28    14    26    1
    29    14    27    1
    30    14    28    1
    31    15    17   ar
    32    15    29    1
    33    16    17   ar
    34    16    31    1
    35    17    32    1
    36    18    33    1
    37    18    34    1
