@<TRIPOS>MOLECULE
IMPHY004078
 22 23 0 0 0
SMALL
GASTEIGER

@<TRIPOS>ATOM
      1 O           6.3580   -1.0347    0.0000 O.3     1  UNL1       -0.4874
      2 O           2.8660    1.0000    0.0000 O.3     1  UNL1       -0.4951
      3 C           5.4641    0.5000    0.0000 C.ar    1  UNL1        0.0199
      4 C           5.4641   -0.5000    0.0000 C.ar    1  UNL1        0.1283
      5 C           4.5981    1.0000    0.0000 C.ar    1  UNL1       -0.0093
      6 C           6.3580    1.0347    0.0000 C.2     1  UNL1       -0.0518
      7 C           7.2641   -0.5208    0.0000 C.3     1  UNL1        0.1081
      8 C           4.5981   -1.0000    0.0000 C.ar    1  UNL1       -0.0159
      9 C           3.7320    0.5000    0.0000 C.ar    1  UNL1        0.1209
     10 C           7.2641    0.5208    0.0000 C.2     1  UNL1       -0.0465
     11 C           3.7320   -0.5000    0.0000 C.ar    1  UNL1       -0.0165
     12 C           2.0000    0.5000    0.0000 C.3     1  UNL1        0.0788
     13 H           4.5981    1.6200    0.0000 H       1  UNL1        0.0661
     14 H           6.3509    1.6546    0.0000 H       1  UNL1        0.0623
     15 H           7.4732   -1.1045    0.0000 H       1  UNL1        0.0742
     16 H           7.8750   -0.4147    0.0000 H       1  UNL1        0.0742
     17 H           4.5981   -1.6200    0.0000 H       1  UNL1        0.0655
     18 H           7.7998    0.8329    0.0000 H       1  UNL1        0.0606
     19 H           3.1951   -0.8100    0.0000 H       1  UNL1        0.0655
     20 H           1.6900    1.0369    0.0000 H       1  UNL1        0.0660
     21 H           1.4631    0.1900    0.0000 H       1  UNL1        0.0660
     22 H           2.3100   -0.0369    0.0000 H       1  UNL1        0.0660
@<TRIPOS>BOND
     1     1     4    1
     2     1     7    1
     3     2     9    1
     4     2    12    1
     5     3     4   ar
     6     3     5   ar
     7     3     6    1
     8     4     8   ar
     9     5     9   ar
    10     5    13    1
    11     6    10    2
    12     6    14    1
    13     7    10    1
    14     7    15    1
    15     7    16    1
    16     8    11   ar
    17     8    17    1
    18     9    11   ar
    19    10    18    1
    20    11    19    1
    21    12    20    1
    22    12    21    1
    23    12    22    1
