@<TRIPOS>MOLECULE
IMPHY006847
 26 25 0 0 0
SMALL
GASTEIGER

@<TRIPOS>ATOM
      1 O           2.0000   -0.6900    0.0000 O.2     1  UNL1       -0.3010
      2 C           5.4641   -0.6900    0.0000 C.3     1  UNL1       -0.0492
      3 C           4.5981   -0.1900    0.0000 C.3     1  UNL1       -0.0464
      4 C           6.3301   -0.1900    0.0000 C.3     1  UNL1       -0.0348
      5 C           3.7320   -0.6900    0.0000 C.3     1  UNL1        0.0028
      6 C           7.1962   -0.6900    0.0000 C.2     1  UNL1       -0.0879
      7 C           8.0622   -0.1900    0.0000 C.2     1  UNL1       -0.0882
      8 C           8.0622    0.8100    0.0000 C.3     1  UNL1       -0.0376
      9 C           2.8660   -0.1900    0.0000 C.2     1  UNL1        0.1203
     10 C           8.9282    1.3100    0.0000 C.3     1  UNL1       -0.0618
     11 H           5.0656   -1.1650    0.0000 H       1  UNL1        0.0268
     12 H           5.8626   -1.1650    0.0000 H       1  UNL1        0.0268
     13 H           4.9966    0.2849    0.0000 H       1  UNL1        0.0269
     14 H           4.1996    0.2849    0.0000 H       1  UNL1        0.0269
     15 H           6.7287    0.2849    0.0000 H       1  UNL1        0.0307
     16 H           5.9316    0.2849    0.0000 H       1  UNL1        0.0307
     17 H           3.3335   -1.1650    0.0000 H       1  UNL1        0.0339
     18 H           4.1306   -1.1650    0.0000 H       1  UNL1        0.0339
     19 H           7.1962   -1.3100    0.0000 H       1  UNL1        0.0569
     20 H           8.5991   -0.5000    0.0000 H       1  UNL1        0.0569
     21 H           7.8501    1.3926    0.0000 H       1  UNL1        0.0305
     22 H           7.4516    0.7023    0.0000 H       1  UNL1        0.0305
     23 H           2.8660    0.4300    0.0000 H       1  UNL1        0.1026
     24 H           9.2382    0.7731    0.0000 H       1  UNL1        0.0233
     25 H           9.4651    1.6200    0.0000 H       1  UNL1        0.0233
     26 H           8.6182    1.8469    0.0000 H       1  UNL1        0.0233
@<TRIPOS>BOND
     1     1     9    2
     2     2     3    1
     3     2     4    1
     4     2    11    1
     5     2    12    1
     6     3     5    1
     7     3    13    1
     8     3    14    1
     9     4     6    1
    10     4    15    1
    11     4    16    1
    12     5     9    1
    13     5    17    1
    14     5    18    1
    15     6     7    2
    16     6    19    1
    17     7     8    1
    18     7    20    1
    19     8    10    1
    20     8    21    1
    21     8    22    1
    22     9    23    1
    23    10    24    1
    24    10    25    1
    25    10    26    1
