@<TRIPOS>MOLECULE
IMPHY009318
 40 45 0 0 0
SMALL
GASTEIGER

@<TRIPOS>ATOM
      1 O           4.5732    3.5673    0.0000 O.3     1  UNL1       -0.4523
      2 O           3.1278    4.4167    0.0000 O.3     1  UNL1       -0.4526
      3 O           5.5740   -3.5278    0.0000 O.3     1  UNL1       -0.4526
      4 O           4.0684   -4.4125    0.0000 O.3     1  UNL1       -0.4526
      5 N           4.6501    0.3368    0.0000 N.pl3   1  UNL1       -0.3275
      6 C           3.7841   -0.1632    0.0000 C.ar    1  UNL1        0.0455
      7 C           3.7841    1.8368    0.0000 C.ar    1  UNL1        0.0229
      8 C           4.6501    1.3368    0.0000 C.3     1  UNL1        0.0411
      9 C           2.9180    0.3368    0.0000 C.ar    1  UNL1        0.0042
     10 C           2.9180    1.3368    0.0000 C.ar    1  UNL1       -0.0077
     11 C           3.8001   -1.2047    0.0000 C.ar    1  UNL1        0.0074
     12 C           3.8001    2.8783    0.0000 C.ar    1  UNL1        0.1715
     13 C           2.9021   -1.7324    0.0000 C.ar    1  UNL1       -0.0124
     14 C           2.0080   -0.1700    0.0000 C.ar    1  UNL1       -0.0517
     15 C           2.0080    1.8437    0.0000 C.ar    1  UNL1       -0.0500
     16 C           2.9021    3.4061    0.0000 C.ar    1  UNL1        0.1666
     17 C           2.0000   -1.2116    0.0000 C.ar    1  UNL1       -0.0532
     18 C           5.5161   -0.1632    0.0000 C.3     1  UNL1        0.0011
     19 C           4.7520   -1.7253    0.0000 C.ar    1  UNL1       -0.0066
     20 C           2.0000    2.8853    0.0000 C.ar    1  UNL1       -0.0155
     21 C           2.8937   -2.8174    0.0000 C.ar    1  UNL1       -0.0084
     22 C           4.7688   -2.8102    0.0000 C.ar    1  UNL1        0.1669
     23 C           3.8334   -3.3599    0.0000 C.ar    1  UNL1        0.1668
     24 C           4.1585    4.5161    0.0000 C.3     1  UNL1        0.2332
     25 C           5.1420   -4.5161    0.0000 C.3     1  UNL1        0.2332
     26 H           5.2607    1.2292    0.0000 H       1  UNL1        0.0514
     27 H           4.8621    1.9194    0.0000 H       1  UNL1        0.0514
     28 H           1.4747    0.1462    0.0000 H       1  UNL1        0.0624
     29 H           1.4747    1.5275    0.0000 H       1  UNL1        0.0625
     30 H           1.4619   -1.5195    0.0000 H       1  UNL1        0.0624
     31 H           5.2061   -0.7001    0.0000 H       1  UNL1        0.0428
     32 H           6.0530   -0.4732    0.0000 H       1  UNL1        0.0428
     33 H           5.8261    0.3738    0.0000 H       1  UNL1        0.0428
     34 H           5.2829   -1.4050    0.0000 H       1  UNL1        0.0662
     35 H           2.3556   -3.1253    0.0000 H       1  UNL1        0.0661
     36 H           1.4619    3.1932    0.0000 H       1  UNL1        0.0655
     37 H           4.7495    4.7033    0.0000 H       1  UNL1        0.1166
     38 H           4.0344    5.1235    0.0000 H       1  UNL1        0.1166
     39 H           5.0180   -5.1235    0.0000 H       1  UNL1        0.1166
     40 H           5.7331   -4.7033    0.0000 H       1  UNL1        0.1166
@<TRIPOS>BOND
     1     1    12    1
     2     1    24    1
     3     2    16    1
     4     2    24    1
     5     3    22    1
     6     3    25    1
     7     4    23    1
     8     4    25    1
     9     5     6    1
    10     5     8    1
    11     5    18    1
    12     6     9   ar
    13     6    11   ar
    14     7     8    1
    15     7    10   ar
    16     7    12   ar
    17     8    26    1
    18     8    27    1
    19     9    10    1
    20     9    14   ar
    21    10    15   ar
    22    11    13   ar
    23    11    19   ar
    24    12    16   ar
    25    13    17   ar
    26    13    21   ar
    27    14    17   ar
    28    14    28    1
    29    15    20   ar
    30    15    29    1
    31    16    20   ar
    32    17    30    1
    33    18    31    1
    34    18    32    1
    35    18    33    1
    36    19    22   ar
    37    19    34    1
    38    20    36    1
    39    21    23   ar
    40    21    35    1
    41    22    23   ar
    42    24    37    1
    43    24    38    1
    44    25    39    1
    45    25    40    1
