@<TRIPOS>MOLECULE
IMPHY004199
 38 41 0 0 0
SMALL
GASTEIGER

@<TRIPOS>ATOM
      1 C          11.6461   -0.2803    0.0000 C.3     1  UNL1       -0.0003
      2 C          11.6461   -1.6003    0.0000 C.3     1  UNL1       -0.0039
      3 C          10.4897   -2.2661    0.0000 C.3     1  UNL1       -0.0191
      4 C          10.4897   -3.5978    0.0000 C.3     1  UNL1       -0.0043
      5 C           9.3333   -4.2636    0.0000 C.3     1  UNL1       -0.0045
      6 C           9.3333   -5.5953    0.0000 C.3     1  UNL1       -0.0225
      7 C           9.7888   -6.8452    0.0000 C.3     1  UNL1       -0.0045
      8 C           8.1885   -6.2611    0.0000 C.3     1  UNL1       -0.0227
      9 C           8.9595   -7.3358    0.0000 C.3     1  UNL1       -0.0046
     10 C           8.1885   -8.4104    0.0000 C.3     1  UNL1       -0.0046
     11 C           6.9153   -8.0016    0.0000 C.3     1  UNL1       -0.0229
     12 C           5.7588   -8.6674    0.0000 C.3     1  UNL1       -0.0232
     13 C           5.7588   -9.9991    0.0000 C.3     1  UNL1        0.0258
     14 C           4.6141  -10.6649    0.0000 C.3     1  UNL1        0.1234
     15 C           3.4576   -9.9991    0.0000 C.2     1  UNL1       -0.0188
     16 C           2.3012  -10.6649    0.0000 C.2     1  UNL1        0.0309
     17 C           1.1564   -9.9991    0.0000 C.2     1  UNL1        0.1726
     18 C           1.1564   -8.6674    0.0000 C.3     1  UNL1        0.0694
     19 C           2.3012   -8.0016    0.0000 C.3     1  UNL1        0.0116
     20 C           3.4576   -8.6674    0.0000 C.3     1  UNL1        0.0140
     21 C           3.4576   -7.3358    0.0000 C.3     1  UNL1        0.0038
     22 C           4.6141   -8.0016    0.0000 C.3     1  UNL1       -0.0194
     23 C           4.6141   -6.6699    0.0000 C.3     1  UNL1       -0.0040
     24 C           5.7588   -6.0041    0.0000 C.3     1  UNL1       -0.0009
     25 C           6.9153   -6.6699    0.0000 C.3     1  UNL1       -0.0073
     26 C           7.0554   -5.3500    0.0000 C.3     1  UNL1       -0.0006
     27 H           4.6141   -9.3333    0.0000 H       1  UNL1        0.0318
     28 O           0.0000  -10.6649    0.0000 O.2     1  UNL1       -0.2914
     29 O           3.7497  -11.6812    0.0000 O.3     1  UNL1       -0.2258
     30 H           5.4668  -11.6812    0.0000 H       1  UNL1        0.0682
     31 H           5.7588   -7.3358    0.0000 H       1  UNL1        0.0314
     32 H           7.0554   -9.3216    0.0000 H       1  UNL1        0.0315
     33 H           8.2352   -7.5811    0.0000 H       1  UNL1        0.0315
     34 H          10.6415   -5.3617    0.0000 H       1  UNL1        0.0316
     35 C          10.0341   -1.0163    0.0000 C.3     1  UNL1       -0.0036
     36 C          10.8985    0.0000    0.0000 C.3     1  UNL1       -0.0003
     37 C           8.7258   -0.7826    0.0000 C.3     1  UNL1       -0.0003
     38 H           9.1814   -2.4998    0.0000 H       1  UNL1        0.0318
@<TRIPOS>BOND
     1     1     2    1
     2     2     3    1
     3     3     4    1
     4     3    35    1
     5     3    38    1
     6     4     5    1
     7     5     6    1
     8     6     7    1
     9     6     8    1
    10     6    34    1
    11     8     9    1
    12     8    25    1
    13     8    33    1
    14     9    10    1
    15    10    11    1
    16    11    12    1
    17    11    25    1
    18    11    32    1
    19    12    13    1
    20    12    22    1
    21    12    31    1
    22    13    14    1
    23    14    15    1
    24    14    29    1
    25    14    30    1
    26    15    16    2
    27    15    20    1
    28    16    17    1
    29    17    18    1
    30    17    28    2
    31    18    19    1
    32    19    20    1
    33    20    21    1
    34    20    22    1
    35    22    23    1
    36    22    27    1
    37    23    24    1
    38    24    25    1
    39    25    26    1
    40    35    36    1
    41    35    37    1
