@<TRIPOS>MOLECULE
IMPHY015965
 39 38 0 0 0
SMALL
GASTEIGER

@<TRIPOS>ATOM
      1 C           9.7942    0.2500    0.0000 C.3     1  UNL1       -0.0528
      2 C           8.9282   -0.2500    0.0000 C.3     1  UNL1       -0.0496
      3 C          10.6603   -0.2500    0.0000 C.3     1  UNL1       -0.0533
      4 C           8.0622    0.2500    0.0000 C.3     1  UNL1       -0.0348
      5 C           4.5981    0.2500    0.0000 C.3     1  UNL1       -0.0496
      6 C           3.7320   -0.2500    0.0000 C.3     1  UNL1       -0.0530
      7 C           5.4641   -0.2500    0.0000 C.3     1  UNL1       -0.0348
      8 C          11.5263    0.2500    0.0000 C.3     1  UNL1       -0.0559
      9 C           7.1962   -0.2500    0.0000 C.2     1  UNL1       -0.0879
     10 C           2.8660    0.2500    0.0000 C.3     1  UNL1       -0.0559
     11 C           6.3301    0.2500    0.0000 C.2     1  UNL1       -0.0879
     12 C          12.3923   -0.2500    0.0000 C.3     1  UNL1       -0.0653
     13 C           2.0000   -0.2500    0.0000 C.3     1  UNL1       -0.0653
     14 H          10.1928    0.7249    0.0000 H       1  UNL1        0.0265
     15 H           9.3957    0.7249    0.0000 H       1  UNL1        0.0265
     16 H           8.5297   -0.7249    0.0000 H       1  UNL1        0.0268
     17 H           9.3267   -0.7249    0.0000 H       1  UNL1        0.0268
     18 H          10.2617   -0.7249    0.0000 H       1  UNL1        0.0265
     19 H          11.0588   -0.7249    0.0000 H       1  UNL1        0.0265
     20 H           8.4607    0.7249    0.0000 H       1  UNL1        0.0307
     21 H           7.6636    0.7249    0.0000 H       1  UNL1        0.0307
     22 H           4.9966    0.7249    0.0000 H       1  UNL1        0.0268
     23 H           4.1996    0.7249    0.0000 H       1  UNL1        0.0268
     24 H           3.3335   -0.7249    0.0000 H       1  UNL1        0.0265
     25 H           4.1306   -0.7249    0.0000 H       1  UNL1        0.0265
     26 H           5.0656   -0.7249    0.0000 H       1  UNL1        0.0307
     27 H           5.8626   -0.7249    0.0000 H       1  UNL1        0.0307
     28 H          11.9248    0.7249    0.0000 H       1  UNL1        0.0263
     29 H          11.1278    0.7249    0.0000 H       1  UNL1        0.0263
     30 H           7.1962   -0.8700    0.0000 H       1  UNL1        0.0569
     31 H           3.2646    0.7249    0.0000 H       1  UNL1        0.0263
     32 H           2.4675    0.7249    0.0000 H       1  UNL1        0.0263
     33 H           6.3301    0.8700    0.0000 H       1  UNL1        0.0569
     34 H          12.0823   -0.7869    0.0000 H       1  UNL1        0.0230
     35 H          12.9292   -0.5600    0.0000 H       1  UNL1        0.0230
     36 H          12.7023    0.2869    0.0000 H       1  UNL1        0.0230
     37 H           1.6900    0.2869    0.0000 H       1  UNL1        0.0230
     38 H           1.4631   -0.5600    0.0000 H       1  UNL1        0.0230
     39 H           2.3100   -0.7869    0.0000 H       1  UNL1        0.0230
@<TRIPOS>BOND
     1     1     2    1
     2     1     3    1
     3     1    14    1
     4     1    15    1
     5     2     4    1
     6     2    16    1
     7     2    17    1
     8     3     8    1
     9     3    18    1
    10     3    19    1
    11     4     9    1
    12     4    20    1
    13     4    21    1
    14     5     6    1
    15     5     7    1
    16     5    22    1
    17     5    23    1
    18     6    10    1
    19     6    24    1
    20     6    25    1
    21     7    11    1
    22     7    26    1
    23     7    27    1
    24     8    12    1
    25     8    28    1
    26     8    29    1
    27     9    11    2
    28     9    30    1
    29    10    13    1
    30    10    31    1
    31    10    32    1
    32    11    33    1
    33    12    34    1
    34    12    35    1
    35    12    36    1
    36    13    37    1
    37    13    38    1
    38    13    39    1
