@<TRIPOS>MOLECULE
IMPHY016632
 24 24 0 0 0
SMALL
GASTEIGER

@<TRIPOS>ATOM
      1 O           4.5981    1.9400    0.0000 O.3     1  UNL1       -0.4771
      2 O           2.8660    1.9400    0.0000 O.2     1  UNL1       -0.2451
      3 C           3.7320   -1.5600    0.0000 C.ar    1  UNL1       -0.0472
      4 C           4.5981   -1.0600    0.0000 C.ar    1  UNL1       -0.0467
      5 C           2.8660   -0.0600    0.0000 C.ar    1  UNL1       -0.0362
      6 C           3.7320    0.4400    0.0000 C.ar    1  UNL1        0.0620
      7 C           2.8660   -1.0600    0.0000 C.ar    1  UNL1       -0.0549
      8 C           4.5981   -0.0600    0.0000 C.ar    1  UNL1       -0.0443
      9 C           3.7320   -2.5600    0.0000 C.3     1  UNL1       -0.0395
     10 C           5.4641   -1.5600    0.0000 C.3     1  UNL1       -0.0394
     11 C           2.0000    0.4400    0.0000 C.3     1  UNL1       -0.0389
     12 C           3.7320    1.4400    0.0000 C.2     1  UNL1        0.3371
     13 H           2.3291   -1.3700    0.0000 H       1  UNL1        0.0623
     14 H           5.1350    0.2500    0.0000 H       1  UNL1        0.0628
     15 H           3.1120   -2.5600    0.0000 H       1  UNL1        0.0278
     16 H           3.7320   -3.1800    0.0000 H       1  UNL1        0.0278
     17 H           4.3520   -2.5600    0.0000 H       1  UNL1        0.0278
     18 H           5.1541   -2.0969    0.0000 H       1  UNL1        0.0278
     19 H           6.0010   -1.8700    0.0000 H       1  UNL1        0.0278
     20 H           5.7741   -1.0231    0.0000 H       1  UNL1        0.0278
     21 H           2.3100    0.9769    0.0000 H       1  UNL1        0.0278
     22 H           1.4631    0.7500    0.0000 H       1  UNL1        0.0278
     23 H           1.6900   -0.0969    0.0000 H       1  UNL1        0.0278
     24 H           4.5981    2.5600    0.0000 H       1  UNL1        0.2954
@<TRIPOS>BOND
     1     1    12    1
     2     1    24    1
     3     2    12    2
     4     3     4   ar
     5     3     7   ar
     6     3     9    1
     7     4     8   ar
     8     4    10    1
     9     5     6   ar
    10     5     7   ar
    11     5    11    1
    12     6     8   ar
    13     6    12    1
    14     7    13    1
    15     8    14    1
    16     9    15    1
    17     9    16    1
    18     9    17    1
    19    10    18    1
    20    10    19    1
    21    10    20    1
    22    11    21    1
    23    11    22    1
    24    11    23    1
