@<TRIPOS>MOLECULE
IMPHY001796
 45 47 0 0 0
SMALL
GASTEIGER

@<TRIPOS>ATOM
      1 O           6.0682   -0.1754    0.0000 O.2     1  UNL1       -0.4507
      2 O           7.8003    1.8246    0.0000 O.3     1  UNL1       -0.4883
      3 O          10.3984    0.3246    0.0000 O.3     1  UNL1       -0.4913
      4 O           8.6663   -2.6754    0.0000 O.3     1  UNL1       -0.4913
      5 O          10.3984   -1.6754    0.0000 O.3     1  UNL1       -0.4885
      6 O           4.3198    2.8592    0.0000 O.3     1  UNL1       -0.5058
      7 O           6.0682    2.8246    0.0000 O.2     1  UNL1       -0.2830
      8 O           2.5381   -0.1995    0.0000 O.3     1  UNL1       -0.5065
      9 C           6.9343    0.3246    0.0000 C.ar    1  UNL1        0.1810
     10 C           7.8003   -0.1754    0.0000 C.ar    1  UNL1        0.0282
     11 C           5.2022    1.3246    0.0000 C.ar    1  UNL1        0.1092
     12 C           5.2022    0.3246    0.0000 C.ar    1  UNL1        0.1465
     13 C           6.9343    1.3246    0.0000 C.ar    1  UNL1        0.2107
     14 C           6.0682    1.8246    0.0000 C.ar    1  UNL1        0.2381
     15 C           7.8003   -1.1754    0.0000 C.ar    1  UNL1       -0.0053
     16 C           8.6663    0.3246    0.0000 C.ar    1  UNL1       -0.0053
     17 C           4.3083    1.8593    0.0000 C.ar    1  UNL1        0.1348
     18 C           9.5323   -0.1754    0.0000 C.ar    1  UNL1        0.1658
     19 C           8.6663   -1.6754    0.0000 C.ar    1  UNL1        0.1658
     20 C           9.5323   -1.1754    0.0000 C.ar    1  UNL1        0.2035
     21 C           4.3083   -0.2101    0.0000 C.ar    1  UNL1        0.0231
     22 C           3.4022    0.3038    0.0000 C.ar    1  UNL1        0.1239
     23 C           3.4022    1.3454    0.0000 C.ar    1  UNL1        0.0223
     24 C           7.8003    2.8246    0.0000 C.3     1  UNL1        0.0791
     25 C          11.2644   -0.1754    0.0000 C.3     1  UNL1        0.0790
     26 C           7.8003   -3.1754    0.0000 C.3     1  UNL1        0.0790
     27 C          10.3984   -2.6754    0.0000 C.3     1  UNL1        0.0791
     28 H           7.2634   -1.4854    0.0000 H       1  UNL1        0.0662
     29 H           8.6663    0.9446    0.0000 H       1  UNL1        0.0662
     30 H           4.3154   -0.8300    0.0000 H       1  UNL1        0.0691
     31 H           2.8665    1.6575    0.0000 H       1  UNL1        0.0691
     32 H           8.4203    2.8246    0.0000 H       1  UNL1        0.0660
     33 H           7.8003    3.4446    0.0000 H       1  UNL1        0.0660
     34 H           7.1803    2.8246    0.0000 H       1  UNL1        0.0660
     35 H           3.7865    3.1754    0.0000 H       1  UNL1        0.2922
     36 H           2.0000    0.1084    0.0000 H       1  UNL1        0.2921
     37 H          10.9544   -0.7123    0.0000 H       1  UNL1        0.0660
     38 H          11.8013   -0.4854    0.0000 H       1  UNL1        0.0660
     39 H          11.5744    0.3615    0.0000 H       1  UNL1        0.0660
     40 H           7.4903   -2.6385    0.0000 H       1  UNL1        0.0660
     41 H           7.2634   -3.4854    0.0000 H       1  UNL1        0.0660
     42 H           8.1103   -3.7123    0.0000 H       1  UNL1        0.0660
     43 H           9.7784   -2.6754    0.0000 H       1  UNL1        0.0660
     44 H          10.3984   -3.2954    0.0000 H       1  UNL1        0.0660
     45 H          11.0184   -2.6754    0.0000 H       1  UNL1        0.0660
@<TRIPOS>BOND
     1     1     9   ar
     2     1    12   ar
     3     2    13    1
     4     2    24    1
     5     3    18    1
     6     3    25    1
     7     4    19    1
     8     4    26    1
     9     5    20    1
    10     5    27    1
    11     6    17    1
    12     6    35    1
    13     7    14    2
    14     8    22    1
    15     8    36    1
    16     9    10    1
    17     9    13   ar
    18    10    15   ar
    19    10    16   ar
    20    11    12   ar
    21    11    14   ar
    22    11    17   ar
    23    12    21   ar
    24    13    14   ar
    25    15    19   ar
    26    15    28    1
    27    16    18   ar
    28    16    29    1
    29    17    23   ar
    30    18    20   ar
    31    19    20   ar
    32    21    22   ar
    33    21    30    1
    34    22    23   ar
    35    23    31    1
    36    24    32    1
    37    24    33    1
    38    24    34    1
    39    25    37    1
    40    25    38    1
    41    25    39    1
    42    26    40    1
    43    26    41    1
    44    26    42    1
    45    27    43    1
    46    27    44    1
    47    27    45    1
