@<TRIPOS>MOLECULE
IMPHY001456
 11 10 0 0 0
SMALL
GASTEIGER

@<TRIPOS>ATOM
      1 SE          3.7320   -0.2500    0.0000 Se      1  UNL1        0.0000
      2 S           4.5981    0.2500    0.0000 S.3     1  UNL1        0.0000
      3 S           2.8660    0.2500    0.0000 S.3     1  UNL1        0.0000
      4 C           5.4641   -0.2500    0.0000 C.3     1  UNL1        0.0000
      5 C           2.0000   -0.2500    0.0000 C.3     1  UNL1        0.0000
      6 H           5.1541   -0.7869    0.0000 H       1  UNL1        0.0000
      7 H           6.0010   -0.5600    0.0000 H       1  UNL1        0.0000
      8 H           5.7741    0.2869    0.0000 H       1  UNL1        0.0000
      9 H           1.6900    0.2869    0.0000 H       1  UNL1        0.0000
     10 H           1.4631   -0.5600    0.0000 H       1  UNL1        0.0000
     11 H           2.3100   -0.7869    0.0000 H       1  UNL1        0.0000
@<TRIPOS>BOND
     1     1     2    1
     2     1     3    1
     3     2     4    1
     4     3     5    1
     5     4     6    1
     6     4     7    1
     7     4     8    1
     8     5     9    1
     9     5    10    1
    10     5    11    1
