@<TRIPOS>MOLECULE
IMPHY012077
 18 18 0 0 0
SMALL
GASTEIGER

@<TRIPOS>ATOM
      1 O           3.7320    2.5000    0.0000 O.3     1  UNL1       -0.4771
      2 O           2.0000   -2.5000    0.0000 O.3     1  UNL1       -0.4771
      3 O           2.0000    2.5000    0.0000 O.2     1  UNL1       -0.2451
      4 O           3.7320   -2.5000    0.0000 O.2     1  UNL1       -0.2451
      5 C           2.8660    1.0000    0.0000 C.ar    1  UNL1        0.0589
      6 C           2.8660   -1.0000    0.0000 C.ar    1  UNL1        0.0589
      7 C           2.0000    0.5000    0.0000 C.ar    1  UNL1       -0.0470
      8 C           2.0000   -0.5000    0.0000 C.ar    1  UNL1       -0.0470
      9 C           3.7320    0.5000    0.0000 C.ar    1  UNL1       -0.0470
     10 C           3.7320   -0.5000    0.0000 C.ar    1  UNL1       -0.0470
     11 C           2.8660    2.0000    0.0000 C.2     1  UNL1        0.3368
     12 C           2.8660   -2.0000    0.0000 C.2     1  UNL1        0.3368
     13 H           1.4631    0.8100    0.0000 H       1  UNL1        0.0626
     14 H           1.4631   -0.8100    0.0000 H       1  UNL1        0.0626
     15 H           4.2690    0.8100    0.0000 H       1  UNL1        0.0626
     16 H           4.2690   -0.8100    0.0000 H       1  UNL1        0.0626
     17 H           3.7320    3.1200    0.0000 H       1  UNL1        0.2954
     18 H           2.0000   -3.1200    0.0000 H       1  UNL1        0.2954
@<TRIPOS>BOND
     1     1    11    1
     2     1    17    1
     3     2    12    1
     4     2    18    1
     5     3    11    2
     6     4    12    2
     7     5     7   ar
     8     5     9   ar
     9     5    11    1
    10     6     8   ar
    11     6    10   ar
    12     6    12    1
    13     7     8   ar
    14     7    13    1
    15     8    14    1
    16     9    10   ar
    17     9    15    1
    18    10    16    1
