@<TRIPOS>MOLECULE
IMPHY007431
 20 20 0 0 0
SMALL
GASTEIGER

@<TRIPOS>ATOM
      1 O           2.8660    2.0000    0.0000 O.3     1  UNL1       -0.4951
      2 O           2.8660   -2.0000    0.0000 O.3     1  UNL1       -0.4951
      3 C           2.8660    1.0000    0.0000 C.ar    1  UNL1        0.1203
      4 C           2.8660   -1.0000    0.0000 C.ar    1  UNL1        0.1203
      5 C           2.0000    0.5000    0.0000 C.ar    1  UNL1       -0.0165
      6 C           2.0000   -0.5000    0.0000 C.ar    1  UNL1       -0.0165
      7 C           3.7320    0.5000    0.0000 C.ar    1  UNL1       -0.0165
      8 C           3.7320   -0.5000    0.0000 C.ar    1  UNL1       -0.0165
      9 C           3.7320    2.5000    0.0000 C.3     1  UNL1        0.0788
     10 C           2.0000   -2.5000    0.0000 C.3     1  UNL1        0.0788
     11 H           1.4631    0.8100    0.0000 H       1  UNL1        0.0655
     12 H           1.4631   -0.8100    0.0000 H       1  UNL1        0.0655
     13 H           4.2690    0.8100    0.0000 H       1  UNL1        0.0655
     14 H           4.2690   -0.8100    0.0000 H       1  UNL1        0.0655
     15 H           4.0420    1.9631    0.0000 H       1  UNL1        0.0660
     16 H           4.2690    2.8100    0.0000 H       1  UNL1        0.0660
     17 H           3.4220    3.0369    0.0000 H       1  UNL1        0.0660
     18 H           1.6900   -1.9631    0.0000 H       1  UNL1        0.0660
     19 H           1.4631   -2.8100    0.0000 H       1  UNL1        0.0660
     20 H           2.3100   -3.0369    0.0000 H       1  UNL1        0.0660
@<TRIPOS>BOND
     1     1     3    1
     2     1     9    1
     3     2     4    1
     4     2    10    1
     5     3     5   ar
     6     3     7   ar
     7     4     6   ar
     8     4     8   ar
     9     5     6   ar
    10     5    11    1
    11     6    12    1
    12     7     8   ar
    13     7    13    1
    14     8    14    1
    15     9    15    1
    16     9    16    1
    17     9    17    1
    18    10    18    1
    19    10    19    1
    20    10    20    1
