@<TRIPOS>MOLECULE
IMPHY010768
 71 75 0 0 0
SMALL
GASTEIGER

@<TRIPOS>ATOM
      1 O           8.8805   -8.6895    0.0000 O.3     1  UNL1       -0.3277
      2 C           9.9787   -9.3261    0.0000 C.3     1  UNL1        0.2798
      3 C           9.9787  -10.5993    0.0000 C.3     1  UNL1        0.2572
      4 C           8.8805  -11.2519    0.0000 C.3     1  UNL1        0.2262
      5 C           7.7665  -10.5993    0.0000 C.3     1  UNL1        0.1788
      6 C           7.7665   -9.3261    0.0000 C.3     1  UNL1        0.1477
      7 O          11.0927   -8.6895    0.0000 O.3     1  UNL1       -0.3212
      8 C          11.0768   -6.4296    0.0000 C.3     1  UNL1        0.2162
      9 C          12.1749   -5.7930    0.0000 C.3     1  UNL1        0.2333
     10 O          13.5118   -6.3182    0.0000 O.3     1  UNL1       -0.4468
     11 C          14.9919   -6.3182    0.0000 C.2     1  UNL1        0.3170
     12 C          15.9149   -4.7745    0.0000 C.3     1  UNL1        0.1096
     13 C          15.9149   -2.9443    0.0000 C.3     1  UNL1        0.0116
     14 C          14.6736   -2.2281    0.0000 C.3     1  UNL1        0.0006
     15 C          14.6736   -0.7957    0.0000 C.3     1  UNL1        0.0000
     16 C          13.4799   -0.0637    0.0000 C.3     1  UNL1        0.0000
     17 C          12.2227   -0.7321    0.0000 C.3     1  UNL1        0.0000
     18 C          11.0131    0.0000    0.0000 C.3     1  UNL1        0.0001
     19 C           9.7718   -0.6843    0.0000 C.3     1  UNL1        0.0025
     20 C           9.7718   -1.9894    0.0000 C.3     1  UNL1        0.0296
     21 C           8.6418   -2.6737    0.0000 C.3     1  UNL1        0.1179
     22 O           8.6418   -3.9469    0.0000 O.3     1  UNL1       -0.3312
     23 C           7.5437   -4.5835    0.0000 C.3     1  UNL1        0.2660
     24 O           6.4296   -3.9469    0.0000 O.3     1  UNL1       -0.3284
     25 C           5.3315   -4.5835    0.0000 C.3     1  UNL1        0.1508
     26 C           5.3315   -5.8726    0.0000 C.3     1  UNL1        0.2117
     27 C           6.4296   -6.5092    0.0000 C.3     1  UNL1        0.2165
     28 C           7.5437   -5.8726    0.0000 C.3     1  UNL1        0.2066
     29 O           8.6895   -6.5092    0.0000 O.3     1  UNL1       -0.3231
     30 C           9.9627   -5.8089    0.0000 C.3     1  UNL1        0.2674
     31 O           9.9627   -4.5198    0.0000 O.3     1  UNL1       -0.3284
     32 C          11.0609   -3.8832    0.0000 C.3     1  UNL1        0.1519
     33 C          12.1749   -4.5198    0.0000 C.3     1  UNL1        0.2212
     34 O          11.0927  -11.2519    0.0000 O.3     1  UNL1       -0.4442
     35 C          12.2067  -10.5993    0.0000 C.2     1  UNL1        0.3165
     36 O          12.2067   -9.3261    0.0000 O.2     1  UNL1       -0.2501
     37 O           8.8805  -12.5250    0.0000 O.3     1  UNL1       -0.2164
     38 O           6.6524  -11.2519    0.0000 O.3     1  UNL1       -0.3258
     39 C           5.5543  -10.5993    0.0000 C.3     1  UNL1        0.2695
     40 O           5.5543   -9.3261    0.0000 O.3     1  UNL1       -0.3273
     41 C           4.4403   -8.6895    0.0000 C.3     1  UNL1        0.1604
     42 C           3.3262   -9.3261    0.0000 C.3     1  UNL1        0.2285
     43 C           3.3262  -10.5993    0.0000 C.3     1  UNL1        0.2293
     44 C           4.4403  -11.2519    0.0000 C.3     1  UNL1        0.2416
     45 C           6.6524   -8.6895    0.0000 C.3     1  UNL1        0.0348
     46 O          15.7239   -7.4641    0.0000 O.2     1  UNL1       -0.2501
     47 C           7.5118   -2.0371    0.0000 C.3     1  UNL1        0.0296
     48 C           6.3978   -2.7215    0.0000 C.3     1  UNL1        0.0025
     49 C           5.2519   -2.0849    0.0000 C.3     1  UNL1        0.0001
     50 C           4.1061   -2.7533    0.0000 C.3     1  UNL1        0.0000
     51 C           2.9761   -2.1167    0.0000 C.3     1  UNL1        0.0000
     52 C           4.2175   -3.9469    0.0000 C.3     1  UNL1        0.0350
     53 O           4.2175   -6.5092    0.0000 O.3     1  UNL1       -0.2177
     54 O           6.4296   -7.7824    0.0000 O.3     1  UNL1       -0.2175
     55 C          11.0609   -2.6100    0.0000 C.3     1  UNL1        0.0350
     56 O          13.2730   -3.8673    0.0000 O.3     1  UNL1       -0.2165
     57 C          13.3049  -11.2519    0.0000 C.3     1  UNL1        0.0991
     58 C          14.4189  -10.5993    0.0000 C.3     1  UNL1        0.0111
     59 C          15.5330  -11.2519    0.0000 C.3     1  UNL1        0.0006
     60 C           4.4403   -7.4004    0.0000 C.3     1  UNL1        0.0361
     61 O           2.2122   -8.6895    0.0000 O.3     1  UNL1       -0.4469
     62 C           2.2122   -7.4004    0.0000 C.2     1  UNL1        0.3190
     63 O           3.3262   -6.7638    0.0000 O.2     1  UNL1       -0.2500
     64 O           2.2122  -11.2519    0.0000 O.3     1  UNL1       -0.2162
     65 O           4.4403  -12.5250    0.0000 O.3     1  UNL1       -0.2148
     66 C          13.3049  -12.5250    0.0000 C.3     1  UNL1        0.0116
     67 C           1.1140   -6.7638    0.0000 C.3     1  UNL1        0.1293
     68 C           1.1140   -5.4747    0.0000 C.3     1  UNL1        0.1626
     69 O           2.2122   -4.8381    0.0000 O.3     1  UNL1       -0.2226
     70 C           0.0000   -7.4004    0.0000 C.3     1  UNL1        0.0143
     71 C           0.0000   -4.8381    0.0000 C.3     1  UNL1        0.0361
@<TRIPOS>BOND
     1     1     6    1
     2     1     2    1
     3     2     7    1
     4     2     3    1
     5     3     4    1
     6     3    34    1
     7     4     5    1
     8     4    37    1
     9     5     6    1
    10     5    38    1
    11     6    45    1
    12     8     7    1
    13     8     9    1
    14     8    30    1
    15     9    33    1
    16     9    10    1
    17    10    11    1
    18    11    12    1
    19    11    46    2
    20    12    13    1
    21    13    14    1
    22    14    15    1
    23    15    16    1
    24    16    17    1
    25    17    18    1
    26    18    19    1
    27    19    20    1
    28    20    21    1
    29    21    47    1
    30    21    22    1
    31    23    22    1
    32    23    28    1
    33    23    24    1
    34    24    25    1
    35    25    26    1
    36    25    52    1
    37    26    27    1
    38    26    53    1
    39    27    28    1
    40    27    54    1
    41    28    29    1
    42    30    29    1
    43    30    31    1
    44    31    32    1
    45    32    33    1
    46    32    55    1
    47    33    56    1
    48    34    35    1
    49    35    36    2
    50    39    38    1
    51    39    44    1
    52    39    40    1
    53    40    41    1
    54    41    42    1
    55    41    60    1
    56    42    61    1
    57    42    43    1
    58    43    44    1
    59    43    64    1
    60    44    65    1
    61    47    48    1
    62    48    49    1
    63    49    50    1
    64    50    51    1
    65    57    35    1
    66    57    66    1
    67    57    58    1
    68    58    59    1
    69    61    62    1
    70    62    63    2
    71    67    62    1
    72    67    68    1
    73    67    70    1
    74    68    69    1
    75    68    71    1
