@<TRIPOS>MOLECULE
IMPHY016964
 35 34 0 0 0
SMALL
GASTEIGER

@<TRIPOS>ATOM
      1 O           8.0622    1.0000    0.0000 O.3     1  UNL1       -0.4615
      2 O           8.9282   -0.5000    0.0000 O.2     1  UNL1       -0.2512
      3 C           6.3301    1.0000    0.0000 C.3     1  UNL1       -0.0157
      4 C           5.4641    0.5000    0.0000 C.3     1  UNL1       -0.0497
      5 C           7.1962    0.5000    0.0000 C.3     1  UNL1        0.1028
      6 C           4.5981    1.0000    0.0000 C.3     1  UNL1       -0.0530
      7 C           3.7320    0.5000    0.0000 C.3     1  UNL1       -0.0533
      8 C           7.1962   -0.5000    0.0000 C.3     1  UNL1       -0.0185
      9 C           2.8660    1.0000    0.0000 C.3     1  UNL1       -0.0559
     10 C           6.3301   -1.0000    0.0000 C.3     1  UNL1       -0.0619
     11 C           2.0000    0.5000    0.0000 C.3     1  UNL1       -0.0653
     12 C           8.9282    0.5000    0.0000 C.2     1  UNL1        0.3042
     13 C           9.7942    1.0000    0.0000 C.3     1  UNL1        0.0332
     14 H           6.7287    1.4750    0.0000 H       1  UNL1        0.0301
     15 H           5.9316    1.4750    0.0000 H       1  UNL1        0.0301
     16 H           5.0656    0.0251    0.0000 H       1  UNL1        0.0266
     17 H           5.8626    0.0251    0.0000 H       1  UNL1        0.0266
     18 H           7.7331    0.1900    0.0000 H       1  UNL1        0.0733
     19 H           4.9966    1.4750    0.0000 H       1  UNL1        0.0265
     20 H           4.1996    1.4750    0.0000 H       1  UNL1        0.0265
     21 H           3.3335    0.0251    0.0000 H       1  UNL1        0.0265
     22 H           4.1306    0.0251    0.0000 H       1  UNL1        0.0265
     23 H           7.4082   -1.0826    0.0000 H       1  UNL1        0.0298
     24 H           7.8067   -0.3923    0.0000 H       1  UNL1        0.0298
     25 H           3.2646    1.4750    0.0000 H       1  UNL1        0.0263
     26 H           2.4675    1.4750    0.0000 H       1  UNL1        0.0263
     27 H           6.0201   -0.4631    0.0000 H       1  UNL1        0.0231
     28 H           5.7932   -1.3100    0.0000 H       1  UNL1        0.0231
     29 H           6.6401   -1.5369    0.0000 H       1  UNL1        0.0231
     30 H           1.6900    1.0369    0.0000 H       1  UNL1        0.0230
     31 H           1.4631    0.1900    0.0000 H       1  UNL1        0.0230
     32 H           2.3100   -0.0369    0.0000 H       1  UNL1        0.0230
     33 H          10.1042    0.4631    0.0000 H       1  UNL1        0.0342
     34 H          10.3312    1.3100    0.0000 H       1  UNL1        0.0342
     35 H           9.4842    1.5369    0.0000 H       1  UNL1        0.0342
@<TRIPOS>BOND
     1     1     5    1
     2     1    12    1
     3     2    12    2
     4     3     4    1
     5     3     5    1
     6     3    14    1
     7     3    15    1
     8     4     6    1
     9     4    16    1
    10     4    17    1
    11     5     8    1
    12     5    18    1
    13     6     7    1
    14     6    19    1
    15     6    20    1
    16     7     9    1
    17     7    21    1
    18     7    22    1
    19     8    10    1
    20     8    23    1
    21     8    24    1
    22     9    11    1
    23     9    25    1
    24     9    26    1
    25    10    27    1
    26    10    28    1
    27    10    29    1
    28    11    30    1
    29    11    31    1
    30    11    32    1
    31    12    13    1
    32    13    33    1
    33    13    34    1
    34    13    35    1
