@<TRIPOS>MOLECULE
IMPHY008713
 43 46 0 0 0
SMALL
GASTEIGER

@<TRIPOS>ATOM
      1 O           4.8885    0.7514    0.0000 O.3     1  UNL1       -0.4836
      2 O           8.0916   -2.6534    0.0000 O.co2   1  UNL1       -0.7753
      3 O           7.6534    2.6203    0.0000 O.3     1  UNL1       -0.3876
      4 O           2.8660   -0.2506    0.0000 O.3     1  UNL1       -0.4914
      5 N           7.2255   -2.1534    0.0000 N.3     1  UNL1        0.2183
      6 C           6.2493   -0.1263    0.0000 C.3     1  UNL1        0.0595
      7 C           5.7341    0.7959    0.0000 C.3     1  UNL1        0.1163
      8 C           7.2255   -0.3491    0.0000 C.3     1  UNL1        0.0040
      9 C           5.4664   -0.7506    0.0000 C.ar    1  UNL1        0.0197
     10 C           7.6600   -1.2512    0.0000 C.3     1  UNL1       -0.0314
     11 C           6.1939    1.6855    0.0000 C.3     1  UNL1        0.0151
     12 C           7.2748   -0.0005    0.0000 C.2     1  UNL1       -0.0713
     13 C           5.4664   -1.7519    0.0000 C.ar    1  UNL1        0.0048
     14 C           4.5992   -0.2499    0.0000 C.ar    1  UNL1        0.1669
     15 C           6.2493   -2.3762    0.0000 C.3     1  UNL1       -0.0066
     16 C           7.1942    1.7320    0.0000 C.3     1  UNL1        0.0768
     17 C           7.7346    0.8890    0.0000 C.2     1  UNL1       -0.0588
     18 C           3.7320   -0.7506    0.0000 C.ar    1  UNL1        0.1618
     19 C           4.5992   -2.2526    0.0000 C.ar    1  UNL1       -0.0496
     20 C           7.3746   -3.1423    0.0000 C.3     1  UNL1       -0.0436
     21 C           3.7320   -1.7519    0.0000 C.ar    1  UNL1       -0.0158
     22 C           2.0000   -0.7506    0.0000 C.3     1  UNL1        0.0790
     23 H           5.2732    1.5101    0.0000 H       1  UNL1        0.0746
     24 H           7.8300   -0.2111    0.0000 H       1  UNL1        0.0330
     25 H           7.2255    0.2709    0.0000 H       1  UNL1        0.0330
     26 H           8.1447   -1.6378    0.0000 H       1  UNL1        0.0814
     27 H           8.1447   -0.8647    0.0000 H       1  UNL1        0.0814
     28 H           6.2731    2.3004    0.0000 H       1  UNL1        0.0329
     29 H           5.6021    1.8702    0.0000 H       1  UNL1        0.0329
     30 H           7.6288   -0.5095    0.0000 H       1  UNL1        0.0580
     31 H           5.7646   -2.7628    0.0000 H       1  UNL1        0.0866
     32 H           6.5183   -2.9348    0.0000 H       1  UNL1        0.0866
     33 H           6.8596    2.2539    0.0000 H       1  UNL1        0.0639
     34 H           8.3539    0.9178    0.0000 H       1  UNL1        0.0595
     35 H           4.5992   -2.8726    0.0000 H       1  UNL1        0.0623
     36 H           6.7615   -3.2347    0.0000 H       1  UNL1        0.0777
     37 H           7.4670   -3.7553    0.0000 H       1  UNL1        0.0777
     38 H           7.9877   -3.0498    0.0000 H       1  UNL1        0.0777
     39 H           3.1951   -2.0619    0.0000 H       1  UNL1        0.0655
     40 H           7.3188    3.1423    0.0000 H       1  UNL1        0.2102
     41 H           1.6900   -0.2136    0.0000 H       1  UNL1        0.0660
     42 H           1.4631   -1.0606    0.0000 H       1  UNL1        0.0660
     43 H           2.3100   -1.2875    0.0000 H       1  UNL1        0.0660
@<TRIPOS>UNITY_ATOM_ATTR
2 1
charge -1
5 1
charge 1
@<TRIPOS>BOND
     1     1     7    1
     2     1    14    1
     3     2     5    1
     4    16     3    1
     5     3    40    1
     6     4    18    1
     7     4    22    1
     8     5    10    1
     9     5    15    1
    10     5    20    1
    11     6     7    1
    12     6     8    1
    13     6     9    1
    14     6    12    1
    15     7    11    1
    16     7    23    1
    17     8    10    1
    18     8    24    1
    19     8    25    1
    20     9    13   ar
    21     9    14   ar
    22    10    26    1
    23    10    27    1
    24    11    16    1
    25    11    28    1
    26    11    29    1
    27    12    17    2
    28    12    30    1
    29    13    15    1
    30    13    19   ar
    31    14    18   ar
    32    15    31    1
    33    15    32    1
    34    16    17    1
    35    16    33    1
    36    17    34    1
    37    18    21   ar
    38    19    21   ar
    39    19    35    1
    40    20    36    1
    41    20    37    1
    42    20    38    1
    43    21    39    1
    44    22    41    1
    45    22    42    1
    46    22    43    1
