@<TRIPOS>MOLECULE
IMPHY001232
 54 59 0 0 0
SMALL
GASTEIGER

@<TRIPOS>ATOM
      1 O           8.6975   -2.5900    0.0000 O.3     1  UNL1       -0.4817
      2 O           5.9174    0.5655    0.0000 O.2     1  UNL1       -0.4534
      3 O           6.8153   -4.0106    0.0000 O.3     1  UNL1       -0.5032
      4 O           5.0572   -0.9382    0.0000 O.3     1  UNL1       -0.5059
      5 O           8.5812    2.0901    0.0000 O.2     1  UNL1       -0.2866
      6 O           3.9787    3.7926    0.0000 O.3     1  UNL1       -0.4814
      7 O           7.6999    3.7027    0.0000 O.3     1  UNL1       -0.5058
      8 C           8.5594   -0.9414    0.0000 C.3     1  UNL1        0.0320
      9 C           9.1774   -1.7197    0.0000 C.3     1  UNL1        0.1124
     10 C           7.6934   -1.4414    0.0000 C.ar    1  UNL1        0.0192
     11 C           8.5594    0.0586    0.0000 C.3     1  UNL1       -0.0099
     12 C           7.7095   -2.4829    0.0000 C.ar    1  UNL1        0.1669
     13 C           6.8274   -0.9414    0.0000 C.ar    1  UNL1        0.0663
     14 C           7.6934    0.5586    0.0000 C.ar    1  UNL1        0.0437
     15 C          10.0326   -2.2379    0.0000 C.3     1  UNL1       -0.0246
     16 C           9.9345   -1.0665    0.0000 C.3     1  UNL1       -0.0246
     17 C           6.8274    0.0586    0.0000 C.ar    1  UNL1        0.1463
     18 C           6.8114   -3.0106    0.0000 C.ar    1  UNL1        0.1623
     19 C           5.9174   -1.4482    0.0000 C.ar    1  UNL1        0.1315
     20 C           7.7095    1.6002    0.0000 C.ar    1  UNL1        0.1998
     21 C           5.9094   -2.4898    0.0000 C.ar    1  UNL1        0.0257
     22 C           6.8114    2.1279    0.0000 C.ar    1  UNL1        0.1063
     23 C           5.9094    1.6071    0.0000 C.ar    1  UNL1        0.1534
     24 C           4.9615    2.1350    0.0000 C.ar    1  UNL1        0.0597
     25 C           6.8282    3.2128    0.0000 C.ar    1  UNL1        0.1347
     26 C           4.9531    3.2200    0.0000 C.ar    1  UNL1        0.1359
     27 C           3.0000    3.2275    0.0000 C.3     1  UNL1        0.1235
     28 C           5.8927    3.7625    0.0000 C.ar    1  UNL1        0.0231
     29 C           3.9960    1.5475    0.0000 C.2     1  UNL1       -0.0478
     30 C           3.0087    2.0974    0.0000 C.2     1  UNL1       -0.0408
     31 C           2.0000    3.2237    0.0000 C.3     1  UNL1       -0.0215
     32 C           2.4967    4.0916    0.0000 C.3     1  UNL1       -0.0215
     33 H           9.1449   -0.7372    0.0000 H       1  UNL1        0.0392
     34 H           9.1700   -0.0490    0.0000 H       1  UNL1        0.0323
     35 H           8.7715    0.6413    0.0000 H       1  UNL1        0.0323
     36 H           9.7113   -2.7682    0.0000 H       1  UNL1        0.0268
     37 H          10.5629   -2.5592    0.0000 H       1  UNL1        0.0268
     38 H          10.3539   -1.7077    0.0000 H       1  UNL1        0.0268
     39 H          10.3395   -1.5359    0.0000 H       1  UNL1        0.0268
     40 H          10.4039   -0.6615    0.0000 H       1  UNL1        0.0268
     41 H           9.5295   -0.5970    0.0000 H       1  UNL1        0.0268
     42 H           5.3712   -2.7977    0.0000 H       1  UNL1        0.0692
     43 H           5.8951    4.3825    0.0000 H       1  UNL1        0.0691
     44 H           6.2796   -4.3227    0.0000 H       1  UNL1        0.2923
     45 H           4.5167   -1.2420    0.0000 H       1  UNL1        0.2922
     46 H           4.0080    0.9276    0.0000 H       1  UNL1        0.0624
     47 H           2.4754    1.7812    0.0000 H       1  UNL1        0.0611
     48 H           1.9976    3.8437    0.0000 H       1  UNL1        0.0271
     49 H           1.3800    3.2213    0.0000 H       1  UNL1        0.0271
     50 H           2.0024    2.6037    0.0000 H       1  UNL1        0.0271
     51 H           3.0324    4.4037    0.0000 H       1  UNL1        0.0271
     52 H           2.1846    4.6274    0.0000 H       1  UNL1        0.0271
     53 H           1.9609    3.7796    0.0000 H       1  UNL1        0.0271
     54 H           7.7071    4.3227    0.0000 H       1  UNL1        0.2922
@<TRIPOS>BOND
     1     1     9    1
     2     1    12    1
     3     2    17   ar
     4     2    23   ar
     5     3    18    1
     6     3    44    1
     7     4    19    1
     8     4    45    1
     9     5    20    2
    10     6    26    1
    11     6    27    1
    12     7    25    1
    13     7    54    1
    14     8     9    1
    15     8    10    1
    16     8    11    1
    17     8    33    1
    18     9    15    1
    19     9    16    1
    20    10    12   ar
    21    10    13   ar
    22    11    14    1
    23    11    34    1
    24    11    35    1
    25    12    18   ar
    26    13    17    1
    27    13    19   ar
    28    14    17   ar
    29    14    20   ar
    30    15    36    1
    31    15    37    1
    32    15    38    1
    33    16    39    1
    34    16    40    1
    35    16    41    1
    36    18    21   ar
    37    19    21   ar
    38    20    22   ar
    39    21    42    1
    40    22    23   ar
    41    22    25   ar
    42    23    24   ar
    43    24    26   ar
    44    24    29    1
    45    25    28   ar
    46    26    28   ar
    47    27    30    1
    48    27    31    1
    49    27    32    1
    50    28    43    1
    51    29    30    2
    52    29    46    1
    53    30    47    1
    54    31    48    1
    55    31    49    1
    56    31    50    1
    57    32    51    1
    58    32    52    1
    59    32    53    1
