@<TRIPOS>MOLECULE
IMPHY008429
 124 130 0 0 0
SMALL
GASTEIGER

@<TRIPOS>ATOM
      1 O           6.8671   -5.0496    0.0000 O.3     1  UNL1       -0.3448
      2 O           9.3112   -4.3579    0.0000 O.3     1  UNL1       -0.3944
      3 O           8.6209    4.2298    0.0000 O.3     1  UNL1       -0.4318
      4 O           9.5042    2.7400    0.0000 O.2     1  UNL1       -0.2501
      5 O           5.1350   -5.0496    0.0000 O.3     1  UNL1       -0.3405
      6 O           9.4695    5.7398    0.0000 O.3     1  UNL1       -0.3312
      7 O           6.8671   -7.0496    0.0000 O.3     1  UNL1       -0.3841
      8 O           5.1350   -8.0496    0.0000 O.3     1  UNL1       -0.3864
      9 O           3.4030   -7.0496    0.0000 O.3     1  UNL1       -0.3865
     10 O          10.3644    3.2499    0.0000 O.3     1  UNL1       -0.3829
     11 O          12.0847    4.2699    0.0000 O.3     1  UNL1       -0.3864
     12 O           2.5369   -5.5496    0.0000 O.3     1  UNL1       -0.3924
     13 O          12.0616    6.2698    0.0000 O.3     1  UNL1       -0.3865
     14 O           9.4464    7.7396    0.0000 O.3     1  UNL1       -0.3924
     15 C           7.7681   -0.3494    0.0000 C.3     1  UNL1       -0.0194
     16 C           6.9040   -0.8527    0.0000 C.3     1  UNL1       -0.0257
     17 C           6.8920   -1.8943    0.0000 C.3     1  UNL1       -0.0249
     18 C           7.7643    0.6506    0.0000 C.3     1  UNL1       -0.0051
     19 C           7.7920   -2.4186    0.0000 C.3     1  UNL1       -0.0255
     20 C           8.6801   -0.8527    0.0000 C.3     1  UNL1       -0.0463
     21 C           7.8046   -3.5035    0.0000 C.3     1  UNL1        0.0206
     22 C           8.6921   -1.8943    0.0000 C.3     1  UNL1       -0.0485
     23 C           6.8963    1.1473    0.0000 C.2     1  UNL1       -0.0629
     24 C           6.0361   -0.3560    0.0000 C.3     1  UNL1       -0.0306
     25 C           5.9421   -2.4186    0.0000 C.3     1  UNL1       -0.0447
     26 C           6.8762    2.1887    0.0000 C.3     1  UNL1       -0.0031
     27 C           8.6723    1.1610    0.0000 C.3     1  UNL1       -0.0424
     28 C           7.7722    2.7199    0.0000 C.3     1  UNL1        0.0744
     29 C           8.7522   -0.1719    0.0000 C.3     1  UNL1       -0.0585
     30 C           6.8671   -4.0496    0.0000 C.3     1  UNL1        0.0695
     31 C           8.6763    2.2026    0.0000 C.3     1  UNL1       -0.0359
     32 C           6.0279   -1.3909    0.0000 C.3     1  UNL1       -0.0590
     33 C           5.9295   -3.5035    0.0000 C.3     1  UNL1       -0.0254
     34 C           6.0322    0.6440    0.0000 C.2     1  UNL1       -0.0836
     35 C           8.7497    0.4808    0.0000 C.3     1  UNL1       -0.0553
     36 C           5.9223    2.7057    0.0000 C.3     1  UNL1       -0.0403
     37 C           7.7764    3.8049    0.0000 C.3     1  UNL1       -0.0362
     38 C           5.9014    3.7905    0.0000 C.3     1  UNL1       -0.0343
     39 C           8.3113   -4.3656    0.0000 C.3     1  UNL1        0.0522
     40 C           8.8046   -3.4958    0.0000 C.3     1  UNL1       -0.0548
     41 C           6.8347    4.3438    0.0000 C.3     1  UNL1       -0.0468
     42 C           8.6324    3.2299    0.0000 C.2     1  UNL1        0.3161
     43 C           5.3881    4.6487    0.0000 C.3     1  UNL1       -0.0598
     44 C           4.9015    3.7750    0.0000 C.3     1  UNL1       -0.0598
     45 C           6.0010   -5.5496    0.0000 C.3     1  UNL1        0.1882
     46 C           6.0010   -6.5496    0.0000 C.3     1  UNL1        0.1341
     47 C           9.4810    4.7398    0.0000 C.3     1  UNL1        0.2337
     48 C           5.1350   -7.0496    0.0000 C.3     1  UNL1        0.1141
     49 C           4.2690   -5.5496    0.0000 C.3     1  UNL1        0.1130
     50 C           4.2690   -6.5496    0.0000 C.3     1  UNL1        0.1119
     51 C          10.3528    4.2499    0.0000 C.3     1  UNL1        0.1455
     52 C          11.2130    4.7599    0.0000 C.3     1  UNL1        0.1152
     53 C           3.4030   -5.0496    0.0000 C.3     1  UNL1        0.0730
     54 C          10.3297    6.2497    0.0000 C.3     1  UNL1        0.1140
     55 C          11.2014    5.7598    0.0000 C.3     1  UNL1        0.1120
     56 C          10.3181    7.2497    0.0000 C.3     1  UNL1        0.0731
     57 H           7.6385   -1.2805    0.0000 H       1  UNL1        0.0315
     58 H           8.5314   -2.8379    0.0000 H       1  UNL1        0.0313
     59 H           9.2921   -0.9517    0.0000 H       1  UNL1        0.0271
     60 H           8.8824   -0.2666    0.0000 H       1  UNL1        0.0271
     61 H           8.9079   -2.4755    0.0000 H       1  UNL1        0.0268
     62 H           9.3017   -1.7811    0.0000 H       1  UNL1        0.0268
     63 H           5.4251   -0.2507    0.0000 H       1  UNL1        0.0310
     64 H           5.8263   -0.9395    0.0000 H       1  UNL1        0.0310
     65 H           6.1502    1.7468    0.0000 H       1  UNL1        0.0357
     66 H           5.7398   -1.8325    0.0000 H       1  UNL1        0.0271
     67 H           5.3300   -2.5176    0.0000 H       1  UNL1        0.0271
     68 H           8.8791    0.5765    0.0000 H       1  UNL1        0.0274
     69 H           9.2836    1.2647    0.0000 H       1  UNL1        0.0274
     70 H           8.8623   -0.7821    0.0000 H       1  UNL1        0.0235
     71 H           9.3624   -0.0619    0.0000 H       1  UNL1        0.0235
     72 H           8.6422    0.4382    0.0000 H       1  UNL1        0.0235
     73 H           7.4046   -4.3586    0.0000 H       1  UNL1        0.0603
     74 H           9.2868    2.0942    0.0000 H       1  UNL1        0.0276
     75 H           8.8876    2.7855    0.0000 H       1  UNL1        0.0276
     76 H           6.3400   -0.8552    0.0000 H       1  UNL1        0.0235
     77 H           5.4922   -1.0789    0.0000 H       1  UNL1        0.0235
     78 H           5.7158   -1.9267    0.0000 H       1  UNL1        0.0235
     79 H           5.3199   -3.3903    0.0000 H       1  UNL1        0.0290
     80 H           5.7137   -4.0847    0.0000 H       1  UNL1        0.0290
     81 H           5.4941    0.9519    0.0000 H       1  UNL1        0.0572
     82 H           8.6444   -0.1302    0.0000 H       1  UNL1        0.0238
     83 H           9.3607    0.3755    0.0000 H       1  UNL1        0.0238
     84 H           8.8550    1.0918    0.0000 H       1  UNL1        0.0238
     85 H           5.3095    2.8000    0.0000 H       1  UNL1        0.0276
     86 H           5.7246    2.1181    0.0000 H       1  UNL1        0.0276
     87 H           8.3869    3.6965    0.0000 H       1  UNL1        0.0276
     88 H           7.9877    4.3878    0.0000 H       1  UNL1        0.0276
     89 H           7.7303   -4.5822    0.0000 H       1  UNL1        0.0563
     90 H           8.4236   -4.9754    0.0000 H       1  UNL1        0.0563
     91 H           8.8094   -4.1157    0.0000 H       1  UNL1        0.0237
     92 H           9.4246   -3.4910    0.0000 H       1  UNL1        0.0237
     93 H           8.7998   -2.8758    0.0000 H       1  UNL1        0.0237
     94 H           7.2302    4.8213    0.0000 H       1  UNL1        0.0271
     95 H           6.4319    4.8151    0.0000 H       1  UNL1        0.0271
     96 H           4.8920    4.3950    0.0000 H       1  UNL1        0.0235
     97 H           4.2816    3.7655    0.0000 H       1  UNL1        0.0235
     98 H           4.9111    3.1551    0.0000 H       1  UNL1        0.0235
     99 H           5.9202    4.9669    0.0000 H       1  UNL1        0.0235
    100 H           5.0699    5.1808    0.0000 H       1  UNL1        0.0235
    101 H           4.8560    4.3304    0.0000 H       1  UNL1        0.0235
    102 H           6.0010   -4.9296    0.0000 H       1  UNL1        0.0937
    103 H           9.6254   -4.8924    0.0000 H       1  UNL1        0.2094
    104 H           6.0010   -7.1696    0.0000 H       1  UNL1        0.0671
    105 H           9.4882    4.1199    0.0000 H       1  UNL1        0.1085
    106 H           4.5981   -7.3596    0.0000 H       1  UNL1        0.0648
    107 H           4.2690   -4.9296    0.0000 H       1  UNL1        0.0647
    108 H           3.7320   -6.2396    0.0000 H       1  UNL1        0.0647
    109 H          10.8933    3.9461    0.0000 H       1  UNL1        0.0683
    110 H           6.8671   -7.6696    0.0000 H       1  UNL1        0.2101
    111 H          11.7463    5.0761    0.0000 H       1  UNL1        0.0648
    112 H           9.7892    6.5535    0.0000 H       1  UNL1        0.0647
    113 H           3.8015   -4.5746    0.0000 H       1  UNL1        0.0584
    114 H           3.0044   -4.5746    0.0000 H       1  UNL1        0.0584
    115 H          11.1943    6.3797    0.0000 H       1  UNL1        0.0647
    116 H           4.5981   -8.3596    0.0000 H       1  UNL1        0.2100
    117 H           3.4030   -7.6696    0.0000 H       1  UNL1        0.2100
    118 H          10.9049    2.9462    0.0000 H       1  UNL1        0.2102
    119 H          10.9299    7.1491    0.0000 H       1  UNL1        0.0584
    120 H          10.5234    7.8347    0.0000 H       1  UNL1        0.0584
    121 H          12.6181    4.5861    0.0000 H       1  UNL1        0.2100
    122 H           2.0000   -5.2396    0.0000 H       1  UNL1        0.2095
    123 H          12.0544    6.8897    0.0000 H       1  UNL1        0.2100
    124 H           9.4392    8.3596    0.0000 H       1  UNL1        0.2095
@<TRIPOS>BOND
     1    30     1    1
     2    45     1    1
     3     2    39    1
     4     2   103    1
     5     3    42    1
     6    47     3    1
     7     4    42    2
     8     5    45    1
     9     5    49    1
    10     6    47    1
    11     6    54    1
    12    46     7    1
    13     7   110    1
    14    48     8    1
    15     8   116    1
    16    50     9    1
    17     9   117    1
    18    51    10    1
    19    10   118    1
    20    52    11    1
    21    11   121    1
    22    12    53    1
    23    12   122    1
    24    55    13    1
    25    13   123    1
    26    14    56    1
    27    14   124    1
    28    15    16    1
    29    15    18    1
    30    15    20    1
    31    15    29    1
    32    16    17    1
    33    16    24    1
    34    16    57    1
    35    17    19    1
    36    17    25    1
    37    17    32    1
    38    18    23    1
    39    18    27    1
    40    18    35    1
    41    19    21    1
    42    19    22    1
    43    19    58    1
    44    20    22    1
    45    20    59    1
    46    20    60    1
    47    21    30    1
    48    21    39    1
    49    21    40    1
    50    22    61    1
    51    22    62    1
    52    23    26    1
    53    23    34    2
    54    24    34    1
    55    24    63    1
    56    24    64    1
    57    25    33    1
    58    25    66    1
    59    25    67    1
    60    26    28    1
    61    26    36    1
    62    26    65    1
    63    27    31    1
    64    27    68    1
    65    27    69    1
    66    28    31    1
    67    28    37    1
    68    28    42    1
    69    29    70    1
    70    29    71    1
    71    29    72    1
    72    30    33    1
    73    30    73    1
    74    31    74    1
    75    31    75    1
    76    32    76    1
    77    32    77    1
    78    32    78    1
    79    33    79    1
    80    33    80    1
    81    34    81    1
    82    35    82    1
    83    35    83    1
    84    35    84    1
    85    36    38    1
    86    36    85    1
    87    36    86    1
    88    37    41    1
    89    37    87    1
    90    37    88    1
    91    38    41    1
    92    38    43    1
    93    38    44    1
    94    39    89    1
    95    39    90    1
    96    40    91    1
    97    40    92    1
    98    40    93    1
    99    41    94    1
   100    41    95    1
   101    43    99    1
   102    43   100    1
   103    43   101    1
   104    44    96    1
   105    44    97    1
   106    44    98    1
   107    45    46    1
   108    45   102    1
   109    46    48    1
   110    46   104    1
   111    47    51    1
   112    47   105    1
   113    48    50    1
   114    48   106    1
   115    49    50    1
   116    49    53    1
   117    49   107    1
   118    50   108    1
   119    51    52    1
   120    51   109    1
   121    52    55    1
   122    52   111    1
   123    53   113    1
   124    53   114    1
   125    54    55    1
   126    54    56    1
   127    54   112    1
   128    55   115    1
   129    56   119    1
   130    56   120    1
