@<TRIPOS>MOLECULE
IMPHY016578
 34 34 0 0 0
SMALL
GASTEIGER

@<TRIPOS>ATOM
      1 O           4.5981    0.7500    0.0000 O.3     1  UNL1       -0.4571
      2 O           6.3301    0.7500    0.0000 O.2     1  UNL1       -0.2511
      3 C           3.7320   -0.7500    0.0000 C.3     1  UNL1        0.0025
      4 C           3.7320   -1.7500    0.0000 C.3     1  UNL1       -0.0426
      5 C           2.8660   -0.2500    0.0000 C.3     1  UNL1       -0.0402
      6 C           4.5981   -0.2500    0.0000 C.3     1  UNL1        0.1245
      7 C           4.5981   -2.2500    0.0000 C.3     1  UNL1       -0.0315
      8 C           5.4641   -1.7500    0.0000 C.2     1  UNL1       -0.0731
      9 C           5.4641   -0.7500    0.0000 C.2     1  UNL1       -0.0447
     10 C           2.0000   -0.7500    0.0000 C.3     1  UNL1       -0.0623
     11 C           2.8660    0.7500    0.0000 C.3     1  UNL1       -0.0623
     12 C           6.3301   -2.2500    0.0000 C.3     1  UNL1       -0.0437
     13 C           5.4641    1.2500    0.0000 C.2     1  UNL1        0.3045
     14 C           5.4641    2.2500    0.0000 C.3     1  UNL1        0.0333
     15 H           3.7320   -0.1300    0.0000 H       1  UNL1        0.0342
     16 H           3.1215   -1.6423    0.0000 H       1  UNL1        0.0272
     17 H           3.5200   -2.3326    0.0000 H       1  UNL1        0.0272
     18 H           2.8660   -0.8700    0.0000 H       1  UNL1        0.0299
     19 H           5.1350    0.0600    0.0000 H       1  UNL1        0.0782
     20 H           4.1996   -2.7250    0.0000 H       1  UNL1        0.0310
     21 H           4.9966   -2.7250    0.0000 H       1  UNL1        0.0310
     22 H           6.0010   -0.4400    0.0000 H       1  UNL1        0.0608
     23 H           1.6900   -0.2131    0.0000 H       1  UNL1        0.0232
     24 H           1.4631   -1.0600    0.0000 H       1  UNL1        0.0232
     25 H           2.3100   -1.2869    0.0000 H       1  UNL1        0.0232
     26 H           3.4860    0.7500    0.0000 H       1  UNL1        0.0232
     27 H           2.8660    1.3700    0.0000 H       1  UNL1        0.0232
     28 H           2.2460    0.7500    0.0000 H       1  UNL1        0.0232
     29 H           6.0201   -2.7869    0.0000 H       1  UNL1        0.0274
     30 H           6.8671   -2.5600    0.0000 H       1  UNL1        0.0274
     31 H           6.6401   -1.7131    0.0000 H       1  UNL1        0.0274
     32 H           6.0841    2.2500    0.0000 H       1  UNL1        0.0342
     33 H           5.4641    2.8700    0.0000 H       1  UNL1        0.0342
     34 H           4.8441    2.2500    0.0000 H       1  UNL1        0.0342
@<TRIPOS>BOND
     1     6     1    1
     2     1    13    1
     3     2    13    2
     4     3     4    1
     5     3     5    1
     6     3     6    1
     7     3    15    1
     8     4     7    1
     9     4    16    1
    10     4    17    1
    11     5    10    1
    12     5    11    1
    13     5    18    1
    14     6     9    1
    15     6    19    1
    16     7     8    1
    17     7    20    1
    18     7    21    1
    19     8     9    2
    20     8    12    1
    21     9    22    1
    22    10    23    1
    23    10    24    1
    24    10    25    1
    25    11    26    1
    26    11    27    1
    27    11    28    1
    28    12    29    1
    29    12    30    1
    30    12    31    1
    31    13    14    1
    32    14    32    1
    33    14    33    1
    34    14    34    1
