@<TRIPOS>MOLECULE
IMPHY007374
 39 41 0 0 0
SMALL
GASTEIGER

@<TRIPOS>ATOM
      1 O           3.5836   -0.0387    0.0000 O.3     1  UNL1       -0.4604
      2 O           4.8698    2.0582    0.0000 O.3     1  UNL1       -0.3844
      3 O           8.0321   -0.3466    0.0000 O.2     1  UNL1       -0.2921
      4 O           2.0000   -0.8435    0.0000 O.2     1  UNL1       -0.2505
      5 C           5.3958    0.1565    0.0000 C.3     1  UNL1        0.0409
      6 C           6.2619   -0.3435    0.0000 C.3     1  UNL1        0.0393
      7 C           4.5298   -0.3435    0.0000 C.3     1  UNL1        0.1132
      8 C           4.5298   -1.3435    0.0000 C.3     1  UNL1        0.0092
      9 C           6.2619   -1.3435    0.0000 C.3     1  UNL1       -0.0397
     10 C           5.3958   -1.8435    0.0000 C.3     1  UNL1       -0.0452
     11 C           5.3798    1.1980    0.0000 C.3     1  UNL1        0.0888
     12 C           3.5836   -1.6482    0.0000 C.3     1  UNL1        0.0598
     13 C           7.1719    0.1634    0.0000 C.2     1  UNL1        0.1622
     14 C           7.1279   -0.8435    0.0000 C.3     1  UNL1       -0.0520
     15 C           3.0000   -0.8435    0.0000 C.2     1  UNL1        0.3106
     16 C           6.2778    1.7258    0.0000 C.2     1  UNL1       -0.0494
     17 C           4.3799    1.1865    0.0000 C.3     1  UNL1       -0.0320
     18 C           7.1799    1.2050    0.0000 C.2     1  UNL1       -0.0199
     19 C           3.2729   -2.5987    0.0000 C.3     1  UNL1       -0.0519
     20 H           6.1287    0.5872    0.0000 H       1  UNL1        0.0377
     21 H           4.4399    0.5018    0.0000 H       1  UNL1        0.0741
     22 H           4.4399   -2.1887    0.0000 H       1  UNL1        0.0344
     23 H           6.4739   -1.9261    0.0000 H       1  UNL1        0.0275
     24 H           6.8725   -1.2358    0.0000 H       1  UNL1        0.0275
     25 H           4.9973   -2.3184    0.0000 H       1  UNL1        0.0270
     26 H           5.7944   -2.3184    0.0000 H       1  UNL1        0.0270
     27 H           2.9711   -1.7444    0.0000 H       1  UNL1        0.0415
     28 H           6.8179   -1.3804    0.0000 H       1  UNL1        0.0239
     29 H           7.6648   -1.1535    0.0000 H       1  UNL1        0.0239
     30 H           7.4379   -0.3065    0.0000 H       1  UNL1        0.0239
     31 H           6.2754    2.3458    0.0000 H       1  UNL1        0.0601
     32 H           4.3727    1.8064    0.0000 H       1  UNL1        0.0260
     33 H           3.7599    1.1793    0.0000 H       1  UNL1        0.0260
     34 H           4.3870    0.5665    0.0000 H       1  UNL1        0.0260
     35 H           7.7180    1.5129    0.0000 H       1  UNL1        0.0650
     36 H           2.6836   -2.4061    0.0000 H       1  UNL1        0.0238
     37 H           3.0803   -3.1880    0.0000 H       1  UNL1        0.0238
     38 H           3.8623   -2.7913    0.0000 H       1  UNL1        0.0238
     39 H           5.1736    2.5987    0.0000 H       1  UNL1        0.2106
@<TRIPOS>BOND
     1     1     7    1
     2     1    15    1
     3    11     2    1
     4     2    39    1
     5     3    13    2
     6     4    15    2
     7     5     6    1
     8     5     7    1
     9     5    11    1
    10     5    20    1
    11     6     9    1
    12     6    13    1
    13     6    14    1
    14     7     8    1
    15     7    21    1
    16     8    10    1
    17     8    12    1
    18     8    22    1
    19     9    10    1
    20     9    23    1
    21     9    24    1
    22    10    25    1
    23    10    26    1
    24    11    16    1
    25    11    17    1
    26    12    15    1
    27    12    19    1
    28    12    27    1
    29    13    18    1
    30    14    28    1
    31    14    29    1
    32    14    30    1
    33    16    18    2
    34    16    31    1
    35    17    32    1
    36    17    33    1
    37    17    34    1
    38    18    35    1
    39    19    36    1
    40    19    37    1
    41    19    38    1
