@<TRIPOS>MOLECULE
IMPHY001262
 140 147 0 0 0
SMALL
GASTEIGER

@<TRIPOS>ATOM
      1 O           6.8671   -1.8322    0.0000 O.3     1  UNL1       -0.3448
      2 O           8.6424    7.5222    0.0000 O.3     1  UNL1       -0.3912
      3 O           9.3112   -1.1406    0.0000 O.3     1  UNL1       -0.3944
      4 O           5.1350   -1.8322    0.0000 O.3     1  UNL1       -0.3315
      5 O           6.8671   -3.8322    0.0000 O.3     1  UNL1       -0.3378
      6 O           5.1350   -4.8322    0.0000 O.3     1  UNL1       -0.3864
      7 O           3.4030   -3.8322    0.0000 O.3     1  UNL1       -0.3860
      8 O           6.0010   -5.3322    0.0000 O.3     1  UNL1       -0.3460
      9 O           2.5369   -2.3322    0.0000 O.3     1  UNL1       -0.4788
     10 O           3.4030   -0.8323    0.0000 O.2     1  UNL1       -0.2480
     11 O           8.5991   -4.8322    0.0000 O.3     1  UNL1       -0.3378
     12 O           8.5991   -6.8322    0.0000 O.3     1  UNL1       -0.3864
     13 O           6.8671   -7.8322    0.0000 O.3     1  UNL1       -0.3869
     14 O           9.4651   -6.3322    0.0000 O.3     1  UNL1       -0.3431
     15 O          10.3312   -3.8322    0.0000 O.3     1  UNL1       -0.3841
     16 O          12.0632   -4.8322    0.0000 O.3     1  UNL1       -0.3864
     17 O          12.0632   -6.8322    0.0000 O.3     1  UNL1       -0.3866
     18 C           7.7681    2.8680    0.0000 C.3     1  UNL1       -0.0194
     19 C           6.9040    2.3646    0.0000 C.3     1  UNL1       -0.0257
     20 C           6.8920    1.3231    0.0000 C.3     1  UNL1       -0.0249
     21 C           7.7643    3.8680    0.0000 C.3     1  UNL1       -0.0051
     22 C           7.7920    0.7988    0.0000 C.3     1  UNL1       -0.0255
     23 C           8.6801    2.3646    0.0000 C.3     1  UNL1       -0.0463
     24 C           6.8963    4.3646    0.0000 C.2     1  UNL1       -0.0633
     25 C           7.8046   -0.2861    0.0000 C.3     1  UNL1        0.0206
     26 C           8.6921    1.3231    0.0000 C.3     1  UNL1       -0.0485
     27 C           6.8762    5.4061    0.0000 C.3     1  UNL1       -0.0111
     28 C           7.7722    5.9373    0.0000 C.3     1  UNL1        0.0005
     29 C           6.0361    2.8613    0.0000 C.3     1  UNL1       -0.0306
     30 C           8.6723    4.3783    0.0000 C.3     1  UNL1       -0.0428
     31 C           5.9421    0.7988    0.0000 C.3     1  UNL1       -0.0447
     32 C           8.6763    5.4199    0.0000 C.3     1  UNL1       -0.0439
     33 C           8.7522    3.0454    0.0000 C.3     1  UNL1       -0.0585
     34 C           6.8671   -0.8323    0.0000 C.3     1  UNL1        0.0695
     35 C           6.0322    3.8613    0.0000 C.2     1  UNL1       -0.0836
     36 C           6.0279    1.8264    0.0000 C.3     1  UNL1       -0.0590
     37 C           5.9295   -0.2861    0.0000 C.3     1  UNL1       -0.0254
     38 C           8.7497    3.6981    0.0000 C.3     1  UNL1       -0.0553
     39 C           5.9223    5.9230    0.0000 C.3     1  UNL1       -0.0406
     40 C           7.7764    7.0222    0.0000 C.3     1  UNL1        0.0616
     41 C           5.9014    7.0078    0.0000 C.3     1  UNL1       -0.0320
     42 C           6.8347    7.5611    0.0000 C.3     1  UNL1       -0.0211
     43 C           8.8046   -0.2784    0.0000 C.3     1  UNL1        0.0522
     44 C           8.3113   -1.1483    0.0000 C.3     1  UNL1       -0.0548
     45 C           8.6324    6.4473    0.0000 C.3     1  UNL1       -0.0567
     46 C           5.3881    7.8660    0.0000 C.3     1  UNL1       -0.0597
     47 C           4.9015    6.9924    0.0000 C.3     1  UNL1       -0.0597
     48 C           6.0010   -2.3322    0.0000 C.3     1  UNL1        0.1892
     49 C           6.0010   -3.3322    0.0000 C.3     1  UNL1        0.1407
     50 C           5.1350   -3.8322    0.0000 C.3     1  UNL1        0.1149
     51 C           4.2690   -2.3322    0.0000 C.3     1  UNL1        0.1859
     52 C           4.2690   -3.3322    0.0000 C.3     1  UNL1        0.1202
     53 C           6.8671   -4.8322    0.0000 C.3     1  UNL1        0.1885
     54 C           3.4030   -1.8322    0.0000 C.2     1  UNL1        0.3367
     55 C           7.7331   -5.3322    0.0000 C.3     1  UNL1        0.1406
     56 C           7.7331   -6.3322    0.0000 C.3     1  UNL1        0.1141
     57 C           6.0010   -6.3322    0.0000 C.3     1  UNL1        0.0792
     58 C           6.8671   -6.8322    0.0000 C.3     1  UNL1        0.1069
     59 C           9.4651   -5.3322    0.0000 C.3     1  UNL1        0.1884
     60 C          10.3312   -4.8322    0.0000 C.3     1  UNL1        0.1341
     61 C          11.1972   -5.3322    0.0000 C.3     1  UNL1        0.1140
     62 C          10.3312   -6.8322    0.0000 C.3     1  UNL1        0.0873
     63 C          11.1972   -6.3322    0.0000 C.3     1  UNL1        0.1095
     64 C          10.3312   -7.8322    0.0000 C.3     1  UNL1       -0.0361
     65 H           7.6385    1.9368    0.0000 H       1  UNL1        0.0315
     66 H           8.5314    0.3795    0.0000 H       1  UNL1        0.0313
     67 H           9.2921    2.2656    0.0000 H       1  UNL1        0.0271
     68 H           8.8824    2.9507    0.0000 H       1  UNL1        0.0271
     69 H           8.9079    0.7418    0.0000 H       1  UNL1        0.0268
     70 H           9.3017    1.4362    0.0000 H       1  UNL1        0.0268
     71 H           6.1502    4.9642    0.0000 H       1  UNL1        0.0352
     72 H           5.4251    2.9666    0.0000 H       1  UNL1        0.0310
     73 H           5.8263    2.2779    0.0000 H       1  UNL1        0.0310
     74 H           8.8791    3.7938    0.0000 H       1  UNL1        0.0274
     75 H           9.2836    4.4820    0.0000 H       1  UNL1        0.0274
     76 H           5.7398    1.3848    0.0000 H       1  UNL1        0.0271
     77 H           5.3300    0.6998    0.0000 H       1  UNL1        0.0271
     78 H           9.2868    5.3115    0.0000 H       1  UNL1        0.0272
     79 H           8.8876    6.0028    0.0000 H       1  UNL1        0.0272
     80 H           8.8623    2.4352    0.0000 H       1  UNL1        0.0235
     81 H           9.3624    3.1554    0.0000 H       1  UNL1        0.0235
     82 H           8.6422    3.6556    0.0000 H       1  UNL1        0.0235
     83 H           7.4046   -1.1412    0.0000 H       1  UNL1        0.0603
     84 H           5.4941    4.1692    0.0000 H       1  UNL1        0.0572
     85 H           6.3400    2.3621    0.0000 H       1  UNL1        0.0235
     86 H           5.4922    2.1385    0.0000 H       1  UNL1        0.0235
     87 H           5.7158    1.2907    0.0000 H       1  UNL1        0.0235
     88 H           5.3199   -0.1730    0.0000 H       1  UNL1        0.0290
     89 H           5.7137   -0.8674    0.0000 H       1  UNL1        0.0290
     90 H           8.6444    3.0871    0.0000 H       1  UNL1        0.0238
     91 H           9.3607    3.5928    0.0000 H       1  UNL1        0.0238
     92 H           8.8550    4.3091    0.0000 H       1  UNL1        0.0238
     93 H           5.3095    6.0173    0.0000 H       1  UNL1        0.0276
     94 H           5.7246    5.3354    0.0000 H       1  UNL1        0.0276
     95 H           8.3128    6.7112    0.0000 H       1  UNL1        0.0599
     96 H           7.2302    8.0386    0.0000 H       1  UNL1        0.0295
     97 H           6.4319    8.0325    0.0000 H       1  UNL1        0.0295
     98 H           9.3855   -0.0619    0.0000 H       1  UNL1        0.0563
     99 H           8.6922    0.3313    0.0000 H       1  UNL1        0.0563
    100 H           7.7767   -1.4624    0.0000 H       1  UNL1        0.0237
    101 H           8.6254   -1.6828    0.0000 H       1  UNL1        0.0237
    102 H           8.8458   -0.8342    0.0000 H       1  UNL1        0.0237
    103 H           8.9486    5.9139    0.0000 H       1  UNL1        0.0236
    104 H           9.1657    6.7634    0.0000 H       1  UNL1        0.0236
    105 H           8.3162    6.9806    0.0000 H       1  UNL1        0.0236
    106 H           5.9202    8.1842    0.0000 H       1  UNL1        0.0235
    107 H           5.0699    8.3981    0.0000 H       1  UNL1        0.0235
    108 H           4.8560    7.5478    0.0000 H       1  UNL1        0.0235
    109 H           4.8920    7.6123    0.0000 H       1  UNL1        0.0235
    110 H           4.2816    6.9828    0.0000 H       1  UNL1        0.0235
    111 H           4.9111    6.3725    0.0000 H       1  UNL1        0.0235
    112 H           8.6424    8.1422    0.0000 H       1  UNL1        0.2098
    113 H           6.5380   -2.6423    0.0000 H       1  UNL1        0.0938
    114 H           9.9312   -1.1358    0.0000 H       1  UNL1        0.2094
    115 H           6.0010   -3.9522    0.0000 H       1  UNL1        0.0675
    116 H           4.5981   -4.1422    0.0000 H       1  UNL1        0.0648
    117 H           4.2690   -1.7122    0.0000 H       1  UNL1        0.0741
    118 H           3.7320   -3.0222    0.0000 H       1  UNL1        0.0652
    119 H           7.4040   -4.5222    0.0000 H       1  UNL1        0.0938
    120 H           4.5981   -5.1422    0.0000 H       1  UNL1        0.2100
    121 H           3.4030   -4.4522    0.0000 H       1  UNL1        0.2100
    122 H           8.2700   -5.6422    0.0000 H       1  UNL1        0.0675
    123 H           7.7331   -6.9522    0.0000 H       1  UNL1        0.0648
    124 H           2.0000   -2.0222    0.0000 H       1  UNL1        0.2951
    125 H           5.3905   -6.2246    0.0000 H       1  UNL1        0.0587
    126 H           5.7890   -6.9149    0.0000 H       1  UNL1        0.0587
    127 H           6.3301   -7.1422    0.0000 H       1  UNL1        0.0643
    128 H           9.4651   -4.7122    0.0000 H       1  UNL1        0.0938
    129 H           8.5991   -7.4522    0.0000 H       1  UNL1        0.2100
    130 H           6.3301   -8.1422    0.0000 H       1  UNL1        0.2100
    131 H          10.8681   -4.5222    0.0000 H       1  UNL1        0.0671
    132 H          11.7341   -5.6422    0.0000 H       1  UNL1        0.0648
    133 H           9.7942   -7.1422    0.0000 H       1  UNL1        0.0621
    134 H          11.1972   -6.9522    0.0000 H       1  UNL1        0.0646
    135 H          10.8681   -3.5222    0.0000 H       1  UNL1        0.2101
    136 H           9.7112   -7.8322    0.0000 H       1  UNL1        0.0255
    137 H          10.3312   -8.4522    0.0000 H       1  UNL1        0.0255
    138 H          10.9512   -7.8322    0.0000 H       1  UNL1        0.0255
    139 H          12.6002   -5.1422    0.0000 H       1  UNL1        0.2100
    140 H          12.0632   -7.4522    0.0000 H       1  UNL1        0.2100
@<TRIPOS>BOND
     1    34     1    1
     2    48     1    1
     3    40     2    1
     4     2   112    1
     5     3    43    1
     6     3   114    1
     7     4    48    1
     8     4    51    1
     9    49     5    1
    10    53     5    1
    11    50     6    1
    12     6   120    1
    13    52     7    1
    14     7   121    1
    15     8    53    1
    16     8    57    1
    17     9    54    1
    18     9   124    1
    19    10    54    2
    20    55    11    1
    21    59    11    1
    22    56    12    1
    23    12   129    1
    24    58    13    1
    25    13   130    1
    26    14    59    1
    27    14    62    1
    28    60    15    1
    29    15   135    1
    30    61    16    1
    31    16   139    1
    32    63    17    1
    33    17   140    1
    34    18    19    1
    35    18    21    1
    36    18    23    1
    37    18    33    1
    38    19    20    1
    39    19    29    1
    40    19    65    1
    41    20    22    1
    42    20    31    1
    43    20    36    1
    44    21    24    1
    45    21    30    1
    46    21    38    1
    47    22    25    1
    48    22    26    1
    49    22    66    1
    50    23    26    1
    51    23    67    1
    52    23    68    1
    53    24    27    1
    54    24    35    2
    55    25    34    1
    56    25    43    1
    57    25    44    1
    58    26    69    1
    59    26    70    1
    60    27    28    1
    61    27    39    1
    62    27    71    1
    63    28    32    1
    64    28    40    1
    65    28    45    1
    66    29    35    1
    67    29    72    1
    68    29    73    1
    69    30    32    1
    70    30    74    1
    71    30    75    1
    72    31    37    1
    73    31    76    1
    74    31    77    1
    75    32    78    1
    76    32    79    1
    77    33    80    1
    78    33    81    1
    79    33    82    1
    80    34    37    1
    81    34    83    1
    82    35    84    1
    83    36    85    1
    84    36    86    1
    85    36    87    1
    86    37    88    1
    87    37    89    1
    88    38    90    1
    89    38    91    1
    90    38    92    1
    91    39    41    1
    92    39    93    1
    93    39    94    1
    94    40    42    1
    95    40    95    1
    96    41    42    1
    97    41    46    1
    98    41    47    1
    99    42    96    1
   100    42    97    1
   101    43    98    1
   102    43    99    1
   103    44   100    1
   104    44   101    1
   105    44   102    1
   106    45   103    1
   107    45   104    1
   108    45   105    1
   109    46   106    1
   110    46   107    1
   111    46   108    1
   112    47   109    1
   113    47   110    1
   114    47   111    1
   115    48    49    1
   116    48   113    1
   117    49    50    1
   118    49   115    1
   119    50    52    1
   120    50   116    1
   121    51    52    1
   122    51    54    1
   123    51   117    1
   124    52   118    1
   125    53    55    1
   126    53   119    1
   127    55    56    1
   128    55   122    1
   129    56    58    1
   130    56   123    1
   131    57    58    1
   132    57   125    1
   133    57   126    1
   134    58   127    1
   135    59    60    1
   136    59   128    1
   137    60    61    1
   138    60   131    1
   139    61    63    1
   140    61   132    1
   141    62    63    1
   142    62    64    1
   143    62   133    1
   144    63   134    1
   145    64   136    1
   146    64   137    1
   147    64   138    1
