@<TRIPOS>MOLECULE
IMPHY000732
 154 163 0 0 0
SMALL
GASTEIGER

@<TRIPOS>ATOM
      1 O          14.3523    5.8824    0.0000 O.3     1  UNL1       -0.3424
      2 O          14.6944    2.8418    0.0000 O.3     1  UNL1       -0.3876
      3 O          12.5799    6.7772    0.0000 O.3     1  UNL1       -0.3458
      4 O          15.2166    6.5594    0.0000 O.3     1  UNL1       -0.3865
      5 O          12.9292   -2.3617    0.0000 O.3     1  UNL1       -0.3451
      6 O          11.1972   -2.3617    0.0000 O.3     1  UNL1       -0.3405
      7 O          12.9292   -4.3617    0.0000 O.3     1  UNL1       -0.3841
      8 O          11.1972   -5.3617    0.0000 O.3     1  UNL1       -0.3864
      9 O           9.4651   -4.3617    0.0000 O.3     1  UNL1       -0.3401
     10 O           9.4651   -1.3617    0.0000 O.3     1  UNL1       -0.3924
     11 O           8.5991   -2.8617    0.0000 O.3     1  UNL1       -0.3405
     12 O           7.7331   -5.3617    0.0000 O.3     1  UNL1       -0.3377
     13 O           6.0010   -4.3617    0.0000 O.3     1  UNL1       -0.3401
     14 O           6.0010   -2.3617    0.0000 O.3     1  UNL1       -0.3865
     15 O           6.4062   -6.4750    0.0000 O.3     1  UNL1       -0.3405
     16 O           6.8671   -0.8617    0.0000 O.3     1  UNL1       -0.3924
     17 O           5.1350   -2.8617    0.0000 O.3     1  UNL1       -0.3461
     18 O           9.0187   -6.8937    0.0000 O.3     1  UNL1       -0.3841
     19 O           8.3347   -8.7732    0.0000 O.3     1  UNL1       -0.3864
     20 O           4.2690   -5.3617    0.0000 O.3     1  UNL1       -0.3841
     21 O           6.3650   -9.1205    0.0000 O.3     1  UNL1       -0.3865
     22 O           2.5369   -4.3617    0.0000 O.3     1  UNL1       -0.3864
     23 O           2.5369   -2.3617    0.0000 O.3     1  UNL1       -0.3869
     24 O           4.7374   -8.5280    0.0000 O.3     1  UNL1       -0.3924
     25 C          12.9585    3.8352    0.0000 C.3     1  UNL1        0.0027
     26 C          13.8264    3.3385    0.0000 C.3     1  UNL1        0.0775
     27 C          13.1640    4.8078    0.0000 C.3     1  UNL1        0.0010
     28 C          13.8303    2.3385    0.0000 C.3     1  UNL1       -0.0045
     29 C          14.1523    4.9146    0.0000 C.3     1  UNL1        0.0685
     30 C          12.9662    1.8352    0.0000 C.3     1  UNL1       -0.0262
     31 C          14.5609    4.0084    0.0000 C.3     1  UNL1        0.0036
     32 C          12.0944    3.3318    0.0000 C.3     1  UNL1       -0.0444
     33 C          12.7617    5.7104    0.0000 C.3     1  UNL1        0.0187
     34 C          12.0983    2.3318    0.0000 C.3     1  UNL1       -0.0485
     35 C          12.9542    0.7936    0.0000 C.3     1  UNL1       -0.0077
     36 C          13.4946    6.3732    0.0000 C.3     1  UNL1        0.1993
     37 C          12.0906    4.3318    0.0000 C.3     1  UNL1       -0.0566
     38 C          14.7422    1.8352    0.0000 C.3     1  UNL1       -0.0287
     39 C          13.8542    0.2693    0.0000 C.2     1  UNL1       -0.0648
     40 C          12.0043    0.2693    0.0000 C.3     1  UNL1       -0.0413
     41 C          14.3019    6.9634    0.0000 C.3     1  UNL1        0.1095
     42 C          11.7833    5.9171    0.0000 C.3     1  UNL1       -0.0571
     43 C          14.7543    0.7936    0.0000 C.2     1  UNL1       -0.0838
     44 C          12.0901    1.2970    0.0000 C.3     1  UNL1       -0.0556
     45 C          13.8668   -0.8156    0.0000 C.3     1  UNL1       -0.0047
     46 C          11.9917   -0.8156    0.0000 C.3     1  UNL1       -0.0254
     47 C          14.1944    7.9576    0.0000 C.3     1  UNL1       -0.0171
     48 C          12.9292   -1.3617    0.0000 C.3     1  UNL1        0.0655
     49 C          13.2796    8.3616    0.0000 C.3     1  UNL1       -0.0178
     50 C          12.4724    7.7714    0.0000 C.3     1  UNL1        0.0537
     51 C          13.1721    9.3558    0.0000 C.3     1  UNL1       -0.0602
     52 C          12.0632   -2.8617    0.0000 C.3     1  UNL1        0.1882
     53 C          12.0632   -3.8617    0.0000 C.3     1  UNL1        0.1341
     54 C          11.1972   -4.3617    0.0000 C.3     1  UNL1        0.1144
     55 C          10.3312   -2.8617    0.0000 C.3     1  UNL1        0.1134
     56 C          10.3312   -3.8617    0.0000 C.3     1  UNL1        0.1184
     57 C           9.4651   -2.3617    0.0000 C.3     1  UNL1        0.0730
     58 C           8.5991   -3.8617    0.0000 C.3     1  UNL1        0.1888
     59 C           7.7331   -4.3617    0.0000 C.3     1  UNL1        0.1410
     60 C           6.8671   -3.8617    0.0000 C.3     1  UNL1        0.1209
     61 C           7.7331   -2.3617    0.0000 C.3     1  UNL1        0.1130
     62 C           6.8671   -2.8617    0.0000 C.3     1  UNL1        0.1123
     63 C           7.7331   -1.3617    0.0000 C.3     1  UNL1        0.0730
     64 C           7.3910   -6.3014    0.0000 C.3     1  UNL1        0.1885
     65 C           5.1350   -3.8617    0.0000 C.3     1  UNL1        0.1880
     66 C           8.0339   -7.0674    0.0000 C.3     1  UNL1        0.1341
     67 C           7.6918   -8.0071    0.0000 C.3     1  UNL1        0.1141
     68 C           4.2690   -4.3617    0.0000 C.3     1  UNL1        0.1341
     69 C           6.0642   -7.4147    0.0000 C.3     1  UNL1        0.1130
     70 C           6.7070   -8.1808    0.0000 C.3     1  UNL1        0.1119
     71 C           3.4030   -3.8617    0.0000 C.3     1  UNL1        0.1137
     72 C           3.4030   -2.8617    0.0000 C.3     1  UNL1        0.1069
     73 C           4.2690   -2.3617    0.0000 C.3     1  UNL1        0.0792
     74 C           5.0794   -7.5883    0.0000 C.3     1  UNL1        0.0730
     75 H          12.5474    4.7425    0.0000 H       1  UNL1        0.0336
     76 H          14.3636    2.6547    0.0000 H       1  UNL1        0.0335
     77 H          14.7685    4.9826    0.0000 H       1  UNL1        0.0601
     78 H          13.5019    1.5231    0.0000 H       1  UNL1        0.0313
     79 H          14.9283    3.5090    0.0000 H       1  UNL1        0.0318
     80 H          15.0962    4.3213    0.0000 H       1  UNL1        0.0318
     81 H          11.8801    3.9136    0.0000 H       1  UNL1        0.0272
     82 H          11.4842    3.2218    0.0000 H       1  UNL1        0.0272
     83 H          12.3719    5.2282    0.0000 H       1  UNL1        0.0354
     84 H          11.4873    2.4372    0.0000 H       1  UNL1        0.0268
     85 H          11.8885    1.7484    0.0000 H       1  UNL1        0.0268
     86 H          12.3985    4.8700    0.0000 H       1  UNL1        0.0236
     87 H          11.5524    4.6398    0.0000 H       1  UNL1        0.0236
     88 H          11.7826    3.7937    0.0000 H       1  UNL1        0.0236
     89 H          15.3543    1.7362    0.0000 H       1  UNL1        0.0311
     90 H          14.9445    2.4212    0.0000 H       1  UNL1        0.0311
     91 H          15.2301    3.1539    0.0000 H       1  UNL1        0.2102
     92 H          11.8020    0.8554    0.0000 H       1  UNL1        0.0274
     93 H          11.3922    0.1703    0.0000 H       1  UNL1        0.0274
     94 H          14.3685    6.3470    0.0000 H       1  UNL1        0.0647
     95 H          11.9114    6.5237    0.0000 H       1  UNL1        0.0234
     96 H          11.1766    6.0452    0.0000 H       1  UNL1        0.0234
     97 H          11.6551    5.3104    0.0000 H       1  UNL1        0.0234
     98 H          15.2936    0.4878    0.0000 H       1  UNL1        0.0572
     99 H          12.4021    1.8327    0.0000 H       1  UNL1        0.0238
    100 H          11.5543    1.6090    0.0000 H       1  UNL1        0.0238
    101 H          11.7780    0.7612    0.0000 H       1  UNL1        0.0238
    102 H          14.0826   -1.3968    0.0000 H       1  UNL1        0.0335
    103 H          14.4764   -0.7024    0.0000 H       1  UNL1        0.0335
    104 H          11.3821   -0.7024    0.0000 H       1  UNL1        0.0290
    105 H          11.7759   -1.3968    0.0000 H       1  UNL1        0.0290
    106 H          14.8130    7.9162    0.0000 H       1  UNL1        0.0295
    107 H          14.3426    8.5596    0.0000 H       1  UNL1        0.0295
    108 H          12.3917   -1.6707    0.0000 H       1  UNL1        0.0600
    109 H          13.7801    8.7275    0.0000 H       1  UNL1        0.0321
    110 H          12.1989    8.3278    0.0000 H       1  UNL1        0.0563
    111 H          11.8769    7.5987    0.0000 H       1  UNL1        0.0563
    112 H          15.7171    6.9253    0.0000 H       1  UNL1        0.2100
    113 H          13.7885    9.4224    0.0000 H       1  UNL1        0.0233
    114 H          13.1055    9.9722    0.0000 H       1  UNL1        0.0233
    115 H          12.5557    9.2891    0.0000 H       1  UNL1        0.0233
    116 H          12.6002   -3.1717    0.0000 H       1  UNL1        0.0937
    117 H          12.0632   -4.4817    0.0000 H       1  UNL1        0.0671
    118 H          10.6603   -4.6717    0.0000 H       1  UNL1        0.0648
    119 H          10.3312   -2.2417    0.0000 H       1  UNL1        0.0647
    120 H           9.7942   -3.5517    0.0000 H       1  UNL1        0.0651
    121 H          13.4662   -4.0517    0.0000 H       1  UNL1        0.2101
    122 H           8.8546   -2.2540    0.0000 H       1  UNL1        0.0584
    123 H           9.2531   -2.9443    0.0000 H       1  UNL1        0.0584
    124 H          11.7341   -5.6717    0.0000 H       1  UNL1        0.2100
    125 H           8.5991   -4.4817    0.0000 H       1  UNL1        0.0938
    126 H           8.9282   -1.0517    0.0000 H       1  UNL1        0.2095
    127 H           7.1962   -4.6717    0.0000 H       1  UNL1        0.0675
    128 H           6.3301   -3.5517    0.0000 H       1  UNL1        0.0651
    129 H           8.2700   -2.0517    0.0000 H       1  UNL1        0.0647
    130 H           6.8671   -2.2417    0.0000 H       1  UNL1        0.0647
    131 H           8.3437   -1.4694    0.0000 H       1  UNL1        0.0584
    132 H           7.9451   -0.7791    0.0000 H       1  UNL1        0.0584
    133 H           6.9925   -5.8264    0.0000 H       1  UNL1        0.0938
    134 H           6.0010   -1.7417    0.0000 H       1  UNL1        0.2100
    135 H           5.1350   -4.4817    0.0000 H       1  UNL1        0.0937
    136 H           8.4324   -7.5424    0.0000 H       1  UNL1        0.0671
    137 H           7.4798   -8.5898    0.0000 H       1  UNL1        0.0648
    138 H           3.7320   -4.6717    0.0000 H       1  UNL1        0.0671
    139 H           5.6656   -6.9397    0.0000 H       1  UNL1        0.0647
    140 H           6.8671   -0.2417    0.0000 H       1  UNL1        0.2095
    141 H           6.0964   -8.2884    0.0000 H       1  UNL1        0.0647
    142 H           2.8660   -3.5517    0.0000 H       1  UNL1        0.0647
    143 H           3.4030   -2.2417    0.0000 H       1  UNL1        0.0643
    144 H           4.6675   -1.8868    0.0000 H       1  UNL1        0.0587
    145 H           3.8705   -1.8868    0.0000 H       1  UNL1        0.0587
    146 H           9.2307   -6.3112    0.0000 H       1  UNL1        0.2101
    147 H           5.0794   -6.9683    0.0000 H       1  UNL1        0.0584
    148 H           4.4688   -7.4806    0.0000 H       1  UNL1        0.0584
    149 H           8.1226   -9.3558    0.0000 H       1  UNL1        0.2100
    150 H           3.7320   -5.6717    0.0000 H       1  UNL1        0.2101
    151 H           5.7544   -9.2281    0.0000 H       1  UNL1        0.2100
    152 H           2.0000   -4.0517    0.0000 H       1  UNL1        0.2100
    153 H           2.5369   -1.7417    0.0000 H       1  UNL1        0.2100
    154 H           4.1268   -8.6357    0.0000 H       1  UNL1        0.2095
@<TRIPOS>BOND
     1     1    29    1
     2     1    36    1
     3     2    26    1
     4     2    91    1
     5     3    36    1
     6     3    50    1
     7     4    41    1
     8     4   112    1
     9     5    48    1
    10     5    52    1
    11     6    52    1
    12     6    55    1
    13     7    53    1
    14     7   121    1
    15     8    54    1
    16     8   124    1
    17     9    56    1
    18     9    58    1
    19    10    57    1
    20    10   126    1
    21    11    58    1
    22    11    61    1
    23    12    59    1
    24    12    64    1
    25    13    60    1
    26    13    65    1
    27    14    62    1
    28    14   134    1
    29    15    64    1
    30    15    69    1
    31    16    63    1
    32    16   140    1
    33    17    65    1
    34    17    73    1
    35    18    66    1
    36    18   146    1
    37    19    67    1
    38    19   149    1
    39    20    68    1
    40    20   150    1
    41    21    70    1
    42    21   151    1
    43    22    71    1
    44    22   152    1
    45    23    72    1
    46    23   153    1
    47    24    74    1
    48    24   154    1
    49    25    26    1
    50    25    27    1
    51    25    32    1
    52    25    37    1
    53    26    28    1
    54    26    31    1
    55    27    29    1
    56    27    33    1
    57    27    75    1
    58    28    30    1
    59    28    38    1
    60    28    76    1
    61    29    31    1
    62    29    77    1
    63    30    34    1
    64    30    35    1
    65    30    78    1
    66    31    79    1
    67    31    80    1
    68    32    34    1
    69    32    81    1
    70    32    82    1
    71    33    36    1
    72    33    42    1
    73    33    83    1
    74    34    84    1
    75    34    85    1
    76    35    39    1
    77    35    40    1
    78    35    44    1
    79    36    41    1
    80    37    86    1
    81    37    87    1
    82    37    88    1
    83    38    43    1
    84    38    89    1
    85    38    90    1
    86    39    43    2
    87    39    45    1
    88    40    46    1
    89    40    92    1
    90    40    93    1
    91    41    47    1
    92    41    94    1
    93    42    95    1
    94    42    96    1
    95    42    97    1
    96    43    98    1
    97    44    99    1
    98    44   100    1
    99    44   101    1
   100    45    48    1
   101    45   102    1
   102    45   103    1
   103    46    48    1
   104    46   104    1
   105    46   105    1
   106    47    49    1
   107    47   106    1
   108    47   107    1
   109    48   108    1
   110    49    50    1
   111    49    51    1
   112    49   109    1
   113    50   110    1
   114    50   111    1
   115    51   113    1
   116    51   114    1
   117    51   115    1
   118    52    53    1
   119    52   116    1
   120    53    54    1
   121    53   117    1
   122    54    56    1
   123    54   118    1
   124    55    56    1
   125    55    57    1
   126    55   119    1
   127    56   120    1
   128    57   122    1
   129    57   123    1
   130    58    59    1
   131    58   125    1
   132    59    60    1
   133    59   127    1
   134    60    62    1
   135    60   128    1
   136    61    62    1
   137    61    63    1
   138    61   129    1
   139    62   130    1
   140    63   131    1
   141    63   132    1
   142    64    66    1
   143    64   133    1
   144    65    68    1
   145    65   135    1
   146    66    67    1
   147    66   136    1
   148    67    70    1
   149    67   137    1
   150    68    71    1
   151    68   138    1
   152    69    70    1
   153    69    74    1
   154    69   139    1
   155    70   141    1
   156    71    72    1
   157    71   142    1
   158    72    73    1
   159    72   143    1
   160    73   144    1
   161    73   145    1
   162    74   147    1
   163    74   148    1
