@<TRIPOS>MOLECULE
IMPHY006752
 59 60 0 0 0
SMALL
GASTEIGER

@<TRIPOS>ATOM
      1 O           4.9344   -0.3590    0.0000 O.3     1  UNL1       -0.4561
      2 O           8.4299   -0.1576    0.0000 O.3     1  UNL1       -0.4580
      3 O           9.9253    0.0206    0.0000 O.3     1  UNL1       -0.3734
      4 O          11.6761    1.4115    0.0000 O.3     1  UNL1       -0.3856
      5 O           8.5623    2.2883    0.0000 O.3     1  UNL1       -0.3885
      6 O           8.0727    1.5372    0.0000 O.2     1  UNL1       -0.2474
      7 O           3.2872   -0.8943    0.0000 O.2     1  UNL1       -0.2453
      8 N           6.1945   -2.6191    0.0000 N.3     1  UNL1       -0.2886
      9 C           6.1945   -1.6191    0.0000 C.3     1  UNL1        0.0723
     10 C           5.2435   -1.3101    0.0000 C.3     1  UNL1        0.1239
     11 C           4.6557   -2.1191    0.0000 C.3     1  UNL1       -0.0010
     12 C           5.2435   -2.9281    0.0000 C.3     1  UNL1        0.0033
     13 C           7.1407   -1.3144    0.0000 C.2     1  UNL1       -0.0148
     14 C           7.1407   -2.9238    0.0000 C.3     1  UNL1        0.0182
     15 C           7.7244   -2.1191    0.0000 C.2     1  UNL1       -0.0660
     16 C           7.4514   -0.3639    0.0000 C.3     1  UNL1        0.1153
     17 C           9.7191    0.9991    0.0000 C.3     1  UNL1        0.2161
     18 C          10.6976    1.2053    0.0000 C.3     1  UNL1        0.1020
     19 C           8.7406    0.7929    0.0000 C.2     1  UNL1        0.3450
     20 C           9.5128    1.9776    0.0000 C.3     1  UNL1        0.0943
     21 C           3.9563   -0.1511    0.0000 C.2     1  UNL1        0.3349
     22 C          11.0082    2.1558    0.0000 C.3     1  UNL1       -0.0330
     23 C          10.9038    0.2268    0.0000 C.3     1  UNL1       -0.0330
     24 C           9.8235    2.9281    0.0000 C.3     1  UNL1       -0.0356
     25 C           3.6473    0.7999    0.0000 C.2     1  UNL1        0.0293
     26 C           4.3164    1.5431    0.0000 C.3     1  UNL1       -0.0333
     27 C           2.6691    1.0078    0.0000 C.2     1  UNL1       -0.0774
     28 C           2.0000    0.2647    0.0000 C.3     1  UNL1       -0.0461
     29 H           6.1956   -0.7691    0.0000 H       1  UNL1        0.0547
     30 H           4.6311   -1.2131    0.0000 H       1  UNL1        0.0753
     31 H           4.1949   -1.7042    0.0000 H       1  UNL1        0.0314
     32 H           4.1949   -2.5340    0.0000 H       1  UNL1        0.0314
     33 H           4.7065   -3.2381    0.0000 H       1  UNL1        0.0428
     34 H           5.4956   -3.4945    0.0000 H       1  UNL1        0.0428
     35 H           6.8897   -3.4908    0.0000 H       1  UNL1        0.0470
     36 H           7.6781   -3.2331    0.0000 H       1  UNL1        0.0470
     37 H           8.3444   -2.1191    0.0000 H       1  UNL1        0.0586
     38 H           7.4308    0.2558    0.0000 H       1  UNL1        0.0746
     39 H           6.8376   -0.2765    0.0000 H       1  UNL1        0.0746
     40 H           9.0514    1.5635    0.0000 H       1  UNL1        0.0626
     41 H          11.5976    1.9632    0.0000 H       1  UNL1        0.0258
     42 H          11.2009    2.7452    0.0000 H       1  UNL1        0.0258
     43 H          10.4189    2.3484    0.0000 H       1  UNL1        0.0258
     44 H          10.2971    0.0990    0.0000 H       1  UNL1        0.0258
     45 H          11.0317   -0.3799    0.0000 H       1  UNL1        0.0258
     46 H          11.5105    0.3547    0.0000 H       1  UNL1        0.0258
     47 H          10.4128    2.7355    0.0000 H       1  UNL1        0.0255
     48 H          10.0161    3.5174    0.0000 H       1  UNL1        0.0255
     49 H           9.2342    3.1207    0.0000 H       1  UNL1        0.0255
     50 H           9.4638   -0.3935    0.0000 H       1  UNL1        0.2111
     51 H          12.0901    0.9501    0.0000 H       1  UNL1        0.2103
     52 H           8.4345    2.8949    0.0000 H       1  UNL1        0.2099
     53 H           4.7772    1.1282    0.0000 H       1  UNL1        0.0280
     54 H           4.7313    2.0038    0.0000 H       1  UNL1        0.0280
     55 H           3.8557    1.9579    0.0000 H       1  UNL1        0.0280
     56 H           2.4775    1.5975    0.0000 H       1  UNL1        0.0574
     57 H           1.5392    0.6796    0.0000 H       1  UNL1        0.0272
     58 H           1.5851   -0.1961    0.0000 H       1  UNL1        0.0272
     59 H           2.4608   -0.1502    0.0000 H       1  UNL1        0.0272
@<TRIPOS>BOND
     1    10     1    1
     2     1    21    1
     3     2    16    1
     4     2    19    1
     5    17     3    1
     6     3    50    1
     7     4    18    1
     8     4    51    1
     9    20     5    1
    10     5    52    1
    11     6    19    2
    12     7    21    2
    13     8     9    1
    14     8    12    1
    15     8    14    1
    16     9    10    1
    17     9    13    1
    18     9    29    1
    19    10    11    1
    20    10    30    1
    21    11    12    1
    22    11    31    1
    23    11    32    1
    24    12    33    1
    25    12    34    1
    26    13    15    2
    27    13    16    1
    28    14    15    1
    29    14    35    1
    30    14    36    1
    31    15    37    1
    32    16    38    1
    33    16    39    1
    34    17    18    1
    35    17    19    1
    36    17    20    1
    37    18    22    1
    38    18    23    1
    39    20    24    1
    40    20    40    1
    41    21    25    1
    42    22    41    1
    43    22    42    1
    44    22    43    1
    45    23    44    1
    46    23    45    1
    47    23    46    1
    48    24    47    1
    49    24    48    1
    50    24    49    1
    51    25    26    1
    52    25    27    2
    53    26    53    1
    54    26    54    1
    55    26    55    1
    56    27    28    1
    57    27    56    1
    58    28    57    1
    59    28    58    1
    60    28    59    1
