@<TRIPOS>MOLECULE
IMPHY001688
 15 15 0 0 0
SMALL
GASTEIGER

@<TRIPOS>ATOM
      1 O           4.7770   -1.1191    0.0000 O.2     1  UNL1       -0.2908
      2 N           2.8090   -0.4197    0.0000 N.ar    1  UNL1       -0.3584
      3 C           3.6180    0.1681    0.0000 C.ar    1  UNL1        0.0819
      4 C           3.3090    1.1191    0.0000 C.ar    1  UNL1       -0.0336
      5 C           4.5691   -0.1410    0.0000 C.2     1  UNL1        0.1761
      6 C           2.0000    0.1681    0.0000 C.ar    1  UNL1        0.0023
      7 C           2.3090    1.1191    0.0000 C.ar    1  UNL1       -0.0437
      8 C           5.3122    0.5282    0.0000 C.3     1  UNL1        0.0001
      9 H           2.8090   -1.0397    0.0000 H       1  UNL1        0.1654
     10 H           3.6734    1.6207    0.0000 H       1  UNL1        0.0640
     11 H           1.4103   -0.0235    0.0000 H       1  UNL1        0.0807
     12 H           1.9446    1.6207    0.0000 H       1  UNL1        0.0633
     13 H           5.7271    0.0674    0.0000 H       1  UNL1        0.0310
     14 H           5.7730    0.9430    0.0000 H       1  UNL1        0.0310
     15 H           4.8974    0.9889    0.0000 H       1  UNL1        0.0310
@<TRIPOS>BOND
     1     1     5    2
     2     2     3   ar
     3     2     6   ar
     4     2     9    1
     5     3     4   ar
     6     3     5    1
     7     4     7   ar
     8     4    10    1
     9     5     8    1
    10     6     7   ar
    11     6    11    1
    12     7    12    1
    13     8    13    1
    14     8    14    1
    15     8    15    1
