@<TRIPOS>MOLECULE
IMPHY007454
 24 24 0 0 0
SMALL
GASTEIGER

@<TRIPOS>ATOM
      1 O           2.8660   -2.8450    0.0000 O.3     1  UNL1       -0.5068
      2 N           3.7320    2.6550    0.0000 N.3     1  UNL1       -0.3187
      3 C           2.8660    1.1550    0.0000 C.3     1  UNL1       -0.0151
      4 C           3.7320    1.6550    0.0000 C.3     1  UNL1       -0.0004
      5 C           2.8660    0.1550    0.0000 C.ar    1  UNL1       -0.0459
      6 C           3.7320   -0.3450    0.0000 C.ar    1  UNL1       -0.0551
      7 C           2.0000   -0.3450    0.0000 C.ar    1  UNL1       -0.0551
      8 C           3.7320   -1.3450    0.0000 C.ar    1  UNL1       -0.0199
      9 C           2.0000   -1.3450    0.0000 C.ar    1  UNL1       -0.0199
     10 C           2.8660   -1.8450    0.0000 C.ar    1  UNL1        0.1169
     11 C           4.5981    3.1550    0.0000 C.3     1  UNL1       -0.0158
     12 H           2.6540    1.7376    0.0000 H       1  UNL1        0.0325
     13 H           2.2554    1.0473    0.0000 H       1  UNL1        0.0325
     14 H           3.9441    1.0724    0.0000 H       1  UNL1        0.0427
     15 H           4.3426    1.7627    0.0000 H       1  UNL1        0.0427
     16 H           4.2690   -0.0350    0.0000 H       1  UNL1        0.0621
     17 H           1.4631   -0.0350    0.0000 H       1  UNL1        0.0621
     18 H           3.1951    2.9650    0.0000 H       1  UNL1        0.1216
     19 H           4.2690   -1.6550    0.0000 H       1  UNL1        0.0654
     20 H           1.4631   -1.6550    0.0000 H       1  UNL1        0.0654
     21 H           4.9081    2.6181    0.0000 H       1  UNL1        0.0388
     22 H           5.1350    3.4650    0.0000 H       1  UNL1        0.0388
     23 H           4.2881    3.6919    0.0000 H       1  UNL1        0.0388
     24 H           2.3291   -3.1550    0.0000 H       1  UNL1        0.2921
@<TRIPOS>BOND
     1     1    10    1
     2     1    24    1
     3     2     4    1
     4     2    11    1
     5     2    18    1
     6     3     4    1
     7     3     5    1
     8     3    12    1
     9     3    13    1
    10     4    14    1
    11     4    15    1
    12     5     6   ar
    13     5     7   ar
    14     6     8   ar
    15     6    16    1
    16     7     9   ar
    17     7    17    1
    18     8    10   ar
    19     8    19    1
    20     9    10   ar
    21     9    20    1
    22    11    21    1
    23    11    22    1
    24    11    23    1
