@<TRIPOS>MOLECULE
IMPHY017583
 24 23 0 0 0
SMALL
GASTEIGER

@<TRIPOS>ATOM
      1 C           3.7320    0.2500    0.0000 C.3     1  UNL1       -0.0499
      2 C           4.5981   -0.2500    0.0000 C.3     1  UNL1       -0.0348
      3 C           2.8660   -0.2500    0.0000 C.3     1  UNL1       -0.0556
      4 C           5.4641    0.2500    0.0000 C.2     1  UNL1       -0.0879
      5 C           2.0000    0.2500    0.0000 C.3     1  UNL1       -0.0653
      6 C           6.3301   -0.2500    0.0000 C.2     1  UNL1       -0.0882
      7 C           7.1962    0.2500    0.0000 C.3     1  UNL1       -0.0376
      8 C           8.0622   -0.2500    0.0000 C.3     1  UNL1       -0.0618
      9 H           4.1306    0.7249    0.0000 H       1  UNL1        0.0268
     10 H           3.3335    0.7249    0.0000 H       1  UNL1        0.0268
     11 H           4.1996   -0.7249    0.0000 H       1  UNL1        0.0307
     12 H           4.9966   -0.7249    0.0000 H       1  UNL1        0.0307
     13 H           2.4675   -0.7249    0.0000 H       1  UNL1        0.0263
     14 H           3.2646   -0.7249    0.0000 H       1  UNL1        0.0263
     15 H           5.4641    0.8700    0.0000 H       1  UNL1        0.0569
     16 H           2.3100    0.7869    0.0000 H       1  UNL1        0.0230
     17 H           1.4631    0.5600    0.0000 H       1  UNL1        0.0230
     18 H           1.6900   -0.2869    0.0000 H       1  UNL1        0.0230
     19 H           6.3301   -0.8700    0.0000 H       1  UNL1        0.0569
     20 H           7.5947    0.7249    0.0000 H       1  UNL1        0.0305
     21 H           6.7976    0.7249    0.0000 H       1  UNL1        0.0305
     22 H           7.7522   -0.7869    0.0000 H       1  UNL1        0.0233
     23 H           8.5991   -0.5600    0.0000 H       1  UNL1        0.0233
     24 H           8.3722    0.2869    0.0000 H       1  UNL1        0.0233
@<TRIPOS>BOND
     1     1     2    1
     2     1     3    1
     3     1     9    1
     4     1    10    1
     5     2     4    1
     6     2    11    1
     7     2    12    1
     8     3     5    1
     9     3    13    1
    10     3    14    1
    11     4     6    2
    12     4    15    1
    13     5    16    1
    14     5    17    1
    15     5    18    1
    16     6     7    1
    17     6    19    1
    18     7     8    1
    19     7    20    1
    20     7    21    1
    21     8    22    1
    22     8    23    1
    23     8    24    1
