@<TRIPOS>MOLECULE
IMPHY013323
 40 43 0 0 0
SMALL
GASTEIGER

@<TRIPOS>ATOM
      1 O           3.5725   -1.2652    0.0000 O.3     1  UNL1       -0.3877
      2 O           2.5354    1.4018    0.0000 O.3     1  UNL1       -0.4914
      3 O           2.5393   -0.6507    0.0000 O.3     1  UNL1       -0.5033
      4 N           6.9481   -0.1232    0.0000 N.3     1  UNL1       -0.2850
      5 C           6.0786   -0.6252    0.0000 C.3     1  UNL1        0.0755
      6 C           5.0589   -0.8284    0.0000 C.3     1  UNL1        0.0036
      7 C           6.2886   -1.6010    0.0000 C.2     1  UNL1       -0.0256
      8 C           5.2090   -0.1232    0.0000 C.ar    1  UNL1       -0.0158
      9 C           6.9481    0.8809    0.0000 C.3     1  UNL1        0.0043
     10 C           7.6882   -0.7930    0.0000 C.3     1  UNL1        0.0188
     11 C           6.0786    1.3830    0.0000 C.3     1  UNL1       -0.0144
     12 C           5.2090    0.8809    0.0000 C.ar    1  UNL1       -0.0372
     13 C           4.5393   -1.5205    0.0000 C.3     1  UNL1        0.0760
     14 C           7.2814   -1.7046    0.0000 C.2     1  UNL1       -0.0648
     15 C           5.7822   -2.2437    0.0000 C.2     1  UNL1       -0.0583
     16 C           4.6523   -2.4018    0.0000 C.2     1  UNL1       -0.0555
     17 C           4.3113   -0.6601    0.0000 C.ar    1  UNL1       -0.0110
     18 C           4.3113    1.4178    0.0000 C.ar    1  UNL1       -0.0128
     19 C           3.4015   -0.1441    0.0000 C.ar    1  UNL1        0.1588
     20 C           3.4015    0.9018    0.0000 C.ar    1  UNL1        0.1615
     21 C           2.5354    2.4018    0.0000 C.3     1  UNL1        0.0790
     22 H           5.1106   -0.2105    0.0000 H       1  UNL1        0.0318
     23 H           4.4794   -0.6078    0.0000 H       1  UNL1        0.0318
     24 H           7.5587    0.7733    0.0000 H       1  UNL1        0.0430
     25 H           7.1602    1.4635    0.0000 H       1  UNL1        0.0430
     26 H           8.2247   -1.1038    0.0000 H       1  UNL1        0.0470
     27 H           8.0536   -0.2922    0.0000 H       1  UNL1        0.0470
     28 H           6.4771    1.8580    0.0000 H       1  UNL1        0.0326
     29 H           5.6800    1.8580    0.0000 H       1  UNL1        0.0326
     30 H           4.3359   -0.9348    0.0000 H       1  UNL1        0.0638
     31 H           7.5914   -2.2415    0.0000 H       1  UNL1        0.0588
     32 H           6.0910   -2.7814    0.0000 H       1  UNL1        0.0619
     33 H           4.2760   -2.8946    0.0000 H       1  UNL1        0.0598
     34 H           4.3185   -1.2800    0.0000 H       1  UNL1        0.0659
     35 H           4.3185    2.0378    0.0000 H       1  UNL1        0.0658
     36 H           3.1357   -1.7052    0.0000 H       1  UNL1        0.2102
     37 H           2.0000   -0.3448    0.0000 H       1  UNL1        0.2923
     38 H           3.1554    2.4018    0.0000 H       1  UNL1        0.0660
     39 H           2.5354    3.0218    0.0000 H       1  UNL1        0.0660
     40 H           1.9154    2.4018    0.0000 H       1  UNL1        0.0660
@<TRIPOS>BOND
     1    13     1    1
     2     1    36    1
     3     2    20    1
     4     2    21    1
     5     3    19    1
     6     3    37    1
     7     4     5    1
     8     4     9    1
     9     4    10    1
    10     5     6    1
    11     5     7    1
    12     5     8    1
    13     6    13    1
    14     6    22    1
    15     6    23    1
    16     7    14    2
    17     7    15    1
    18     8    12   ar
    19     8    17   ar
    20     9    11    1
    21     9    24    1
    22     9    25    1
    23    10    14    1
    24    10    26    1
    25    10    27    1
    26    11    12    1
    27    11    28    1
    28    11    29    1
    29    12    18   ar
    30    13    16    1
    31    13    30    1
    32    14    31    1
    33    15    16    2
    34    15    32    1
    35    16    33    1
    36    17    19   ar
    37    17    34    1
    38    18    20   ar
    39    18    35    1
    40    19    20   ar
    41    21    38    1
    42    21    39    1
    43    21    40    1
