@<TRIPOS>MOLECULE
IMPHY000672
 104 112 0 0 0
SMALL
GASTEIGER

@<TRIPOS>ATOM
      1 O          10.4158   -1.9895    0.0000 O.3     1  UNL1       -0.4609
      2 O          13.9862   -0.0226    0.0000 O.3     1  UNL1       -0.3425
      3 O           6.0075    2.6039    0.0000 O.3     1  UNL1       -0.3449
      4 O          14.9516   -1.8604    0.0000 O.3     1  UNL1       -0.3145
      5 O          15.9026    0.3490    0.0000 O.3     1  UNL1       -0.3543
      6 O          16.6785   -2.3002    0.0000 O.3     1  UNL1       -0.3646
      7 O           4.2755    2.6106    0.0000 O.3     1  UNL1       -0.3461
      8 O           8.6837   -1.9828    0.0000 O.2     1  UNL1       -0.2512
      9 O           5.9998    0.6039    0.0000 O.3     1  UNL1       -0.3841
     10 O           4.2639   -0.3894    0.0000 O.3     1  UNL1       -0.3864
     11 O           2.5357    0.6173    0.0000 O.3     1  UNL1       -0.3869
     12 C           9.5376    0.5797    0.0000 C.3     1  UNL1       -0.0161
     13 C           8.6716    1.0798    0.0000 C.3     1  UNL1       -0.0192
     14 C           8.6714    0.0793    0.0000 C.3     1  UNL1       -0.0400
     15 C          10.4037    1.0798    0.0000 C.3     1  UNL1       -0.0286
     16 C          11.3137    0.5729    0.0000 C.3     1  UNL1       -0.0173
     17 C           8.6716    2.0798    0.0000 C.3     1  UNL1       -0.0273
     18 C          11.3217   -0.4687    0.0000 C.3     1  UNL1        0.0161
     19 C           9.5216   -0.4618    0.0000 C.3     1  UNL1       -0.0087
     20 C           7.7777    0.5451    0.0000 C.3     1  UNL1       -0.0442
     21 C          10.4037    2.0798    0.0000 C.3     1  UNL1       -0.0489
     22 C          10.4196   -0.9895    0.0000 C.3     1  UNL1        0.1098
     23 C           9.5376    2.5798    0.0000 C.3     1  UNL1       -0.0488
     24 C          12.3097   -0.7785    0.0000 C.3     1  UNL1       -0.0026
     25 C           7.7777    2.6144    0.0000 C.3     1  UNL1       -0.0052
     26 C          12.2968    0.8979    0.0000 C.3     1  UNL1       -0.0199
     27 C          12.9112    0.0644    0.0000 C.3     1  UNL1        0.0663
     28 C           6.8716    1.0589    0.0000 C.3     1  UNL1       -0.0255
     29 C           6.8716    2.1006    0.0000 C.3     1  UNL1        0.0672
     30 C          11.3060    1.5729    0.0000 C.3     1  UNL1       -0.0586
     31 C          11.3294   -1.4687    0.0000 C.3     1  UNL1       -0.0553
     32 C          12.7417   -1.7668    0.0000 C.3     1  UNL1       -0.0331
     33 C           7.2877    3.4862    0.0000 C.3     1  UNL1       -0.0572
     34 C           8.2877    3.4746    0.0000 C.3     1  UNL1       -0.0572
     35 C          14.4409   -1.0006    0.0000 C.3     1  UNL1        0.2025
     36 C          13.8144   -1.8786    0.0000 C.3     1  UNL1        0.0071
     37 C          15.1007   -0.2492    0.0000 C.3     1  UNL1        0.1467
     38 C          12.1515   -2.5741    0.0000 C.3     1  UNL1       -0.0619
     39 C          16.0193   -0.6446    0.0000 C.3     1  UNL1        0.1487
     40 C          15.9271   -1.6403    0.0000 C.3     1  UNL1        0.1912
     41 C           9.5478   -2.4862    0.0000 C.2     1  UNL1        0.3042
     42 C           5.1396    2.1072    0.0000 C.3     1  UNL1        0.1878
     43 C          16.9378   -1.0399    0.0000 C.3     1  UNL1       -0.0283
     44 C           9.5440   -3.4862    0.0000 C.3     1  UNL1        0.0332
     45 C           5.1357    1.1072    0.0000 C.3     1  UNL1        0.1341
     46 C           4.2678    0.6106    0.0000 C.3     1  UNL1        0.1137
     47 C           3.4075    2.1139    0.0000 C.3     1  UNL1        0.0792
     48 C           3.4037    1.1139    0.0000 C.3     1  UNL1        0.1069
     49 H           8.0608   -0.0283    0.0000 H       1  UNL1        0.0276
     50 H           8.8835   -0.5033    0.0000 H       1  UNL1        0.0276
     51 H          11.1365    1.5104    0.0000 H       1  UNL1        0.0312
     52 H           8.6782    2.9297    0.0000 H       1  UNL1        0.0312
     53 H           8.9124   -0.3463    0.0000 H       1  UNL1        0.0307
     54 H           9.3036   -1.0422    0.0000 H       1  UNL1        0.0307
     55 H           7.3840    0.0661    0.0000 H       1  UNL1        0.0272
     56 H           8.1823    0.0753    0.0000 H       1  UNL1        0.0272
     57 H          11.0143    1.9721    0.0000 H       1  UNL1        0.0268
     58 H          10.6157    2.6624    0.0000 H       1  UNL1        0.0268
     59 H           9.8809   -1.2964    0.0000 H       1  UNL1        0.0740
     60 H           9.9362    3.0547    0.0000 H       1  UNL1        0.0268
     61 H           9.1391    3.0547    0.0000 H       1  UNL1        0.0268
     62 H          11.7421   -1.4112    0.0000 H       1  UNL1        0.0335
     63 H          12.8318    1.2113    0.0000 H       1  UNL1        0.0296
     64 H          12.0414    1.4629    0.0000 H       1  UNL1        0.0296
     65 H          13.3248    0.8070    0.0000 H       1  UNL1        0.0600
     66 H           6.2608    1.1650    0.0000 H       1  UNL1        0.0290
     67 H           6.6626    0.4752    0.0000 H       1  UNL1        0.0290
     68 H           6.3341    1.7916    0.0000 H       1  UNL1        0.0602
     69 H          11.9259    1.5776    0.0000 H       1  UNL1        0.0235
     70 H          11.3012    2.1928    0.0000 H       1  UNL1        0.0235
     71 H          10.6860    1.5681    0.0000 H       1  UNL1        0.0235
     72 H          10.7094   -1.4734    0.0000 H       1  UNL1        0.0236
     73 H          11.3342   -2.0886    0.0000 H       1  UNL1        0.0236
     74 H          11.9494   -1.4639    0.0000 H       1  UNL1        0.0236
     75 H          12.9932   -2.3335    0.0000 H       1  UNL1        0.0303
     76 H           7.8282    3.7899    0.0000 H       1  UNL1        0.0236
     77 H           6.9840    4.0266    0.0000 H       1  UNL1        0.0236
     78 H           6.7472    3.1824    0.0000 H       1  UNL1        0.0236
     79 H           8.8210    3.1584    0.0000 H       1  UNL1        0.0236
     80 H           8.6038    4.0079    0.0000 H       1  UNL1        0.0236
     81 H           7.7544    3.7908    0.0000 H       1  UNL1        0.0236
     82 H          13.6456   -2.4752    0.0000 H       1  UNL1        0.0321
     83 H          14.3733   -2.1471    0.0000 H       1  UNL1        0.0321
     84 H          14.5241    0.3752    0.0000 H       1  UNL1        0.0681
     85 H          11.6510   -2.2081    0.0000 H       1  UNL1        0.0233
     86 H          11.7855   -3.0746    0.0000 H       1  UNL1        0.0233
     87 H          12.6520   -2.9400    0.0000 H       1  UNL1        0.0233
     88 H          16.5031   -1.4110    0.0000 H       1  UNL1        0.0940
     89 H           5.6753    1.7952    0.0000 H       1  UNL1        0.0937
     90 H          16.6927   -1.6094    0.0000 H       1  UNL1        0.0260
     91 H          17.5073   -1.2851    0.0000 H       1  UNL1        0.0260
     92 H          17.1829   -0.4704    0.0000 H       1  UNL1        0.0260
     93 H           8.9240   -3.4838    0.0000 H       1  UNL1        0.0342
     94 H           9.5416   -4.1062    0.0000 H       1  UNL1        0.0342
     95 H          10.1640   -3.4886    0.0000 H       1  UNL1        0.0342
     96 H           5.1333    0.4873    0.0000 H       1  UNL1        0.0671
     97 H          16.5572   -2.9082    0.0000 H       1  UNL1        0.2126
     98 H           3.7296    0.3027    0.0000 H       1  UNL1        0.0647
     99 H           3.1977    2.6973    0.0000 H       1  UNL1        0.0587
    100 H           2.7966    2.0086    0.0000 H       1  UNL1        0.0587
    101 H           2.8680    1.4260    0.0000 H       1  UNL1        0.0643
    102 H           5.9974   -0.0161    0.0000 H       1  UNL1        0.2101
    103 H           3.7258   -0.6973    0.0000 H       1  UNL1        0.2100
    104 H           2.0000    0.9293    0.0000 H       1  UNL1        0.2100
@<TRIPOS>BOND
     1    22     1    1
     2     1    41    1
     3     2    27    1
     4    35     2    1
     5    29     3    1
     6    42     3    1
     7     4    35    1
     8     4    40    1
     9     5    37    1
    10     5    39    1
    11    40     6    1
    12     6    97    1
    13     7    42    1
    14     7    47    1
    15     8    41    2
    16    45     9    1
    17     9   102    1
    18    46    10    1
    19    10   103    1
    20    48    11    1
    21    11   104    1
    22    12    13    1
    23    12    14    1
    24    12    15    1
    25    12    19    1
    26    13    14    1
    27    13    17    1
    28    13    20    1
    29    14    49    1
    30    14    50    1
    31    15    16    1
    32    15    21    1
    33    15    51    1
    34    16    18    1
    35    16    26    1
    36    16    30    1
    37    17    23    1
    38    17    25    1
    39    17    52    1
    40    18    22    1
    41    18    24    1
    42    18    31    1
    43    19    22    1
    44    19    53    1
    45    19    54    1
    46    20    28    1
    47    20    55    1
    48    20    56    1
    49    21    23    1
    50    21    57    1
    51    21    58    1
    52    22    59    1
    53    23    60    1
    54    23    61    1
    55    24    27    1
    56    24    32    1
    57    24    62    1
    58    25    29    1
    59    25    33    1
    60    25    34    1
    61    26    27    1
    62    26    63    1
    63    26    64    1
    64    27    65    1
    65    28    29    1
    66    28    66    1
    67    28    67    1
    68    29    68    1
    69    30    69    1
    70    30    70    1
    71    30    71    1
    72    31    72    1
    73    31    73    1
    74    31    74    1
    75    32    36    1
    76    32    38    1
    77    32    75    1
    78    33    76    1
    79    33    77    1
    80    33    78    1
    81    34    79    1
    82    34    80    1
    83    34    81    1
    84    35    36    1
    85    35    37    1
    86    36    82    1
    87    36    83    1
    88    37    39    1
    89    37    84    1
    90    38    85    1
    91    38    86    1
    92    38    87    1
    93    39    40    1
    94    39    43    1
    95    40    88    1
    96    41    44    1
    97    42    45    1
    98    42    89    1
    99    43    90    1
   100    43    91    1
   101    43    92    1
   102    44    93    1
   103    44    94    1
   104    44    95    1
   105    45    46    1
   106    45    96    1
   107    46    48    1
   108    46    98    1
   109    47    48    1
   110    47    99    1
   111    47   100    1
   112    48   101    1
