@<TRIPOS>MOLECULE
IMPHY004924
 64 69 0 0 0
SMALL
GASTEIGER

@<TRIPOS>ATOM
      1 O          13.8904   -0.2643    0.0000 O.2     1  UNL1       -0.4544
      2 O          10.3984    1.7704    0.0000 O.3     1  UNL1       -0.4486
      3 O           6.0682    0.2704    0.0000 O.2     1  UNL1       -0.4544
      4 O          10.3984   -0.2296    0.0000 O.3     1  UNL1       -0.4912
      5 O          12.1304    2.7704    0.0000 O.3     1  UNL1       -0.5026
      6 O          13.8788    2.8050    0.0000 O.2     1  UNL1       -0.2869
      7 O           4.3198   -2.7642    0.0000 O.3     1  UNL1       -0.5058
      8 O           6.0682   -2.7296    0.0000 O.2     1  UNL1       -0.2869
      9 O          18.2528   -1.7638    0.0000 O.3     1  UNL1       -0.4951
     10 O           2.5381    0.2945    0.0000 O.3     1  UNL1       -0.5065
     11 C          12.9965    1.2704    0.0000 C.ar    1  UNL1        0.1092
     12 C          12.9965    0.2704    0.0000 C.ar    1  UNL1        0.1465
     13 C          11.2644    1.2704    0.0000 C.ar    1  UNL1        0.2118
     14 C          12.1304    1.7704    0.0000 C.ar    1  UNL1        0.1774
     15 C          11.2644    0.2704    0.0000 C.ar    1  UNL1        0.1693
     16 C          14.7965    0.2496    0.0000 C.ar    1  UNL1        0.1392
     17 C          12.1304   -0.2296    0.0000 C.ar    1  UNL1        0.0270
     18 C          13.8904    1.8050    0.0000 C.ar    1  UNL1        0.1967
     19 C           7.8003    0.2704    0.0000 C.ar    1  UNL1        0.0176
     20 C          14.7965    1.2912    0.0000 C.ar    1  UNL1        0.0288
     21 C           6.9343   -0.2296    0.0000 C.ar    1  UNL1        0.1392
     22 C          15.6606   -0.2538    0.0000 C.ar    1  UNL1        0.0176
     23 C           5.2022   -1.2296    0.0000 C.ar    1  UNL1        0.1055
     24 C           9.5323    1.2704    0.0000 C.ar    1  UNL1        0.1288
     25 C           5.2022   -0.2296    0.0000 C.ar    1  UNL1        0.1462
     26 C           8.6663   -0.2296    0.0000 C.ar    1  UNL1       -0.0476
     27 C           7.8003    1.2704    0.0000 C.ar    1  UNL1       -0.0476
     28 C           6.9343   -1.2296    0.0000 C.ar    1  UNL1        0.0288
     29 C           6.0682   -1.7296    0.0000 C.ar    1  UNL1        0.1966
     30 C           9.5323    0.2704    0.0000 C.ar    1  UNL1       -0.0187
     31 C           8.6663    1.7704    0.0000 C.ar    1  UNL1       -0.0187
     32 C           4.3083   -1.7643    0.0000 C.ar    1  UNL1        0.1347
     33 C           4.3083    0.3051    0.0000 C.ar    1  UNL1        0.0231
     34 C          15.6567   -1.2538    0.0000 C.ar    1  UNL1       -0.0476
     35 C          16.5285    0.2429    0.0000 C.ar    1  UNL1       -0.0476
     36 C           3.4022   -0.2088    0.0000 C.ar    1  UNL1        0.1239
     37 C           3.4022   -1.2504    0.0000 C.ar    1  UNL1        0.0223
     38 C          16.5208   -1.7571    0.0000 C.ar    1  UNL1       -0.0193
     39 C          17.3926   -0.2604    0.0000 C.ar    1  UNL1       -0.0193
     40 C          17.3887   -1.2604    0.0000 C.ar    1  UNL1        0.1201
     41 C          10.3984   -1.2296    0.0000 C.3     1  UNL1        0.0790
     42 C          19.1208   -1.2671    0.0000 C.3     1  UNL1        0.0788
     43 H          12.1304   -0.8496    0.0000 H       1  UNL1        0.0692
     44 H          15.3322    1.6033    0.0000 H       1  UNL1        0.0693
     45 H           8.6663   -0.8496    0.0000 H       1  UNL1        0.0626
     46 H           7.2634    1.5804    0.0000 H       1  UNL1        0.0626
     47 H           7.4712   -1.5396    0.0000 H       1  UNL1        0.0693
     48 H          10.0693   -0.0396    0.0000 H       1  UNL1        0.0654
     49 H           8.6663    2.3904    0.0000 H       1  UNL1        0.0654
     50 H           4.3154    0.9250    0.0000 H       1  UNL1        0.0691
     51 H          15.1186   -1.5617    0.0000 H       1  UNL1        0.0626
     52 H          16.5309    0.8629    0.0000 H       1  UNL1        0.0626
     53 H           2.8665   -1.5625    0.0000 H       1  UNL1        0.0691
     54 H          16.5184   -2.3771    0.0000 H       1  UNL1        0.0654
     55 H          17.9307    0.0475    0.0000 H       1  UNL1        0.0654
     56 H          11.5935    3.0804    0.0000 H       1  UNL1        0.2923
     57 H           9.7784   -1.2296    0.0000 H       1  UNL1        0.0660
     58 H          10.3984   -1.8496    0.0000 H       1  UNL1        0.0660
     59 H          11.0184   -1.2296    0.0000 H       1  UNL1        0.0660
     60 H           3.7865   -3.0804    0.0000 H       1  UNL1        0.2922
     61 H           2.0000   -0.0134    0.0000 H       1  UNL1        0.2921
     62 H          19.4287   -1.8052    0.0000 H       1  UNL1        0.0660
     63 H          19.6589   -0.9592    0.0000 H       1  UNL1        0.0660
     64 H          18.8128   -0.7290    0.0000 H       1  UNL1        0.0660
@<TRIPOS>BOND
     1     1    12   ar
     2     1    16   ar
     3     2    13    1
     4     2    24    1
     5     3    21   ar
     6     3    25   ar
     7     4    15    1
     8     4    41    1
     9     5    14    1
    10     5    56    1
    11     6    18    2
    12     7    32    1
    13     7    60    1
    14     8    29    2
    15     9    40    1
    16     9    42    1
    17    10    36    1
    18    10    61    1
    19    11    12   ar
    20    11    14   ar
    21    11    18   ar
    22    12    17   ar
    23    13    14   ar
    24    13    15   ar
    25    15    17   ar
    26    16    20   ar
    27    16    22    1
    28    17    43    1
    29    18    20   ar
    30    19    21    1
    31    19    26   ar
    32    19    27   ar
    33    20    44    1
    34    21    28   ar
    35    22    34   ar
    36    22    35   ar
    37    23    25   ar
    38    23    29   ar
    39    23    32   ar
    40    24    30   ar
    41    24    31   ar
    42    25    33   ar
    43    26    30   ar
    44    26    45    1
    45    27    31   ar
    46    27    46    1
    47    28    29   ar
    48    28    47    1
    49    30    48    1
    50    31    49    1
    51    32    37   ar
    52    33    36   ar
    53    33    50    1
    54    34    38   ar
    55    34    51    1
    56    35    39   ar
    57    35    52    1
    58    36    37   ar
    59    37    53    1
    60    38    40   ar
    61    38    54    1
    62    39    40   ar
    63    39    55    1
    64    41    57    1
    65    41    58    1
    66    41    59    1
    67    42    62    1
    68    42    63    1
    69    42    64    1
