@<TRIPOS>MOLECULE
IMPHY005824
 95 102 0 0 0
SMALL
GASTEIGER

@<TRIPOS>ATOM
      1 O           9.4109   -1.0102    0.0000 O.3     1  UNL1       -0.4811
      2 O           5.6534   -1.0793    0.0000 O.3     1  UNL1       -0.4811
      3 O           6.8188   -0.4802    0.0000 O.3     1  UNL1       -0.3875
      4 O           3.9339    0.9315    0.0000 O.3     1  UNL1       -0.3875
      5 O           8.5507    3.5690    0.0000 O.3     1  UNL1       -0.4179
      6 O          10.3324    2.5585    0.0000 O.3     1  UNL1       -0.5033
      7 O           7.6221   -4.0212    0.0000 O.3     1  UNL1       -0.5063
      8 O           7.1090    3.6328    0.0000 O.3     1  UNL1       -0.5027
      9 O           2.3921   -2.3559    0.0000 O.3     1  UNL1       -0.5063
     10 O          11.1615   -4.0758    0.0000 O.3     1  UNL1       -0.4221
     11 O           5.2881    3.2172    0.0000 O.2     1  UNL1       -0.2840
     12 O           5.1512   -4.5736    0.0000 O.3     1  UNL1       -0.5065
     13 O          10.2827    3.5890    0.0000 O.2     1  UNL1       -0.2445
     14 O          10.2840   -5.5690    0.0000 O.2     1  UNL1       -0.2445
     15 O           7.6443    7.0587    0.0000 O.3     1  UNL1       -0.5032
     16 O          11.1081    7.0988    0.0000 O.3     1  UNL1       -0.5032
     17 O           9.3646    8.0787    0.0000 O.3     1  UNL1       -0.5009
     18 O          14.6178   -5.1024    0.0000 O.3     1  UNL1       -0.5032
     19 O          12.8627   -8.0890    0.0000 O.3     1  UNL1       -0.5032
     20 O          14.6024   -7.1024    0.0000 O.3     1  UNL1       -0.5009
     21 C           8.5507   -0.5002    0.0000 C.3     1  UNL1        0.1518
     22 C           7.6790   -0.9902    0.0000 C.3     1  UNL1        0.1004
     23 C           8.5623    0.4997    0.0000 C.ar    1  UNL1        0.0067
     24 C           5.2881   -0.1484    0.0000 C.3     1  UNL1        0.1513
     25 C           7.6674   -1.9901    0.0000 C.3     1  UNL1        0.0092
     26 C           4.2993    0.0006    0.0000 C.3     1  UNL1        0.1004
     27 C           7.6683    1.0344    0.0000 C.ar    1  UNL1       -0.0034
     28 C           5.9116    0.6334    0.0000 C.ar    1  UNL1       -0.0005
     29 C           3.6758   -0.7812    0.0000 C.3     1  UNL1        0.0092
     30 C           8.5276   -2.5001    0.0000 C.ar    1  UNL1        0.0384
     31 C           6.8865    0.4109    0.0000 C.ar    1  UNL1       -0.0465
     32 C           9.3993   -2.0102    0.0000 C.ar    1  UNL1        0.1317
     33 C           7.6683    2.0344    0.0000 C.ar    1  UNL1        0.0737
     34 C           4.0411   -1.7121    0.0000 C.ar    1  UNL1        0.0384
     35 C           9.4683    1.0135    0.0000 C.ar    1  UNL1       -0.0091
     36 C           5.0299   -1.8612    0.0000 C.ar    1  UNL1        0.1317
     37 C           8.5623    2.5690    0.0000 C.ar    1  UNL1        0.1844
     38 C           5.4777    1.5344    0.0000 C.ar    1  UNL1       -0.0045
     39 C           9.4683    2.0552    0.0000 C.ar    1  UNL1        0.1603
     40 C           8.4995   -3.5414    0.0000 C.ar    1  UNL1        0.1271
     41 C           6.8865    2.6578    0.0000 C.ar    1  UNL1        0.1751
     42 C          10.3034   -2.5275    0.0000 C.ar    1  UNL1        0.0230
     43 C           5.9116    2.4353    0.0000 C.ar    1  UNL1        0.2211
     44 C           3.3792   -2.5164    0.0000 C.ar    1  UNL1        0.1270
     45 C           5.4254   -2.8248    0.0000 C.ar    1  UNL1        0.0221
     46 C           9.3914   -4.0795    0.0000 C.ar    1  UNL1        0.0228
     47 C          10.2994   -3.5691    0.0000 C.ar    1  UNL1        0.1389
     48 C           3.7522   -3.4889    0.0000 C.ar    1  UNL1        0.0218
     49 C           4.7822   -3.6442    0.0000 C.ar    1  UNL1        0.1238
     50 C           9.4109    4.0789    0.0000 C.2     1  UNL1        0.3448
     51 C          11.1538   -5.0757    0.0000 C.2     1  UNL1        0.3447
     52 C           9.3993    5.0789    0.0000 C.ar    1  UNL1        0.0665
     53 C          12.0160   -5.5824    0.0000 C.ar    1  UNL1        0.0665
     54 C          10.2595    5.5888    0.0000 C.ar    1  UNL1       -0.0023
     55 C           8.5276    5.5688    0.0000 C.ar    1  UNL1       -0.0023
     56 C           8.5160    6.5688    0.0000 C.ar    1  UNL1        0.1628
     57 C          10.2480    6.5888    0.0000 C.ar    1  UNL1        0.1628
     58 C          12.0083   -6.5824    0.0000 C.ar    1  UNL1       -0.0023
     59 C          12.8858   -5.0891    0.0000 C.ar    1  UNL1       -0.0023
     60 C           9.3762    7.0787    0.0000 C.ar    1  UNL1        0.2006
     61 C          13.7480   -5.5958    0.0000 C.ar    1  UNL1        0.1628
     62 C          12.8704   -7.0890    0.0000 C.ar    1  UNL1        0.1628
     63 C          13.7403   -6.5957    0.0000 C.ar    1  UNL1        0.2006
     64 H           9.2917   -0.0838    0.0000 H       1  UNL1        0.0811
     65 H           7.1385   -1.2940    0.0000 H       1  UNL1        0.0637
     66 H           5.0616    0.4287    0.0000 H       1  UNL1        0.0811
     67 H           7.0581   -1.8754    0.0000 H       1  UNL1        0.0342
     68 H           7.4486   -2.5702    0.0000 H       1  UNL1        0.0342
     69 H           3.6862    0.0930    0.0000 H       1  UNL1        0.0637
     70 H           3.2655   -0.3164    0.0000 H       1  UNL1        0.0342
     71 H           3.1467   -1.1045    0.0000 H       1  UNL1        0.0342
     72 H           7.0245   -0.1936    0.0000 H       1  UNL1        0.0628
     73 H          10.0041    0.7015    0.0000 H       1  UNL1        0.0659
     74 H           4.8577    1.5344    0.0000 H       1  UNL1        0.0661
     75 H           6.2783   -0.7840    0.0000 H       1  UNL1        0.2100
     76 H          10.8404   -2.2175    0.0000 H       1  UNL1        0.0691
     77 H           3.3208    1.0239    0.0000 H       1  UNL1        0.2100
     78 H           6.0395   -2.9101    0.0000 H       1  UNL1        0.0691
     79 H           9.3818   -4.6994    0.0000 H       1  UNL1        0.0691
     80 H           3.3638   -3.9722    0.0000 H       1  UNL1        0.0691
     81 H          10.8706    2.2506    0.0000 H       1  UNL1        0.2923
     82 H           7.6078   -4.6410    0.0000 H       1  UNL1        0.2921
     83 H           6.6545    4.0545    0.0000 H       1  UNL1        0.2923
     84 H           2.0000   -2.8361    0.0000 H       1  UNL1        0.2921
     85 H           4.7665   -5.0598    0.0000 H       1  UNL1        0.2921
     86 H          10.8000    5.2851    0.0000 H       1  UNL1        0.0663
     87 H           7.9943    5.2526    0.0000 H       1  UNL1        0.0663
     88 H          11.4690   -6.8882    0.0000 H       1  UNL1        0.0663
     89 H          12.8906   -4.4691    0.0000 H       1  UNL1        0.0663
     90 H           7.6371    7.6787    0.0000 H       1  UNL1        0.2923
     91 H          11.6486    6.7950    0.0000 H       1  UNL1        0.2923
     92 H           9.8980    8.3948    0.0000 H       1  UNL1        0.2924
     93 H          14.6226   -4.4825    0.0000 H       1  UNL1        0.2923
     94 H          12.3234   -8.3948    0.0000 H       1  UNL1        0.2923
     95 H          14.5976   -7.7224    0.0000 H       1  UNL1        0.2924
@<TRIPOS>BOND
     1     1    21    1
     2     1    32    1
     3     2    24    1
     4     2    36    1
     5    22     3    1
     6     3    75    1
     7    26     4    1
     8     4    77    1
     9     5    37    1
    10     5    50    1
    11     6    39    1
    12     6    81    1
    13     7    40    1
    14     7    82    1
    15     8    41    1
    16     8    83    1
    17     9    44    1
    18     9    84    1
    19    10    47    1
    20    10    51    1
    21    11    43    2
    22    12    49    1
    23    12    85    1
    24    13    50    2
    25    14    51    2
    26    15    56    1
    27    15    90    1
    28    16    57    1
    29    16    91    1
    30    17    60    1
    31    17    92    1
    32    18    61    1
    33    18    93    1
    34    19    62    1
    35    19    94    1
    36    20    63    1
    37    20    95    1
    38    21    22    1
    39    21    23    1
    40    21    64    1
    41    22    25    1
    42    22    65    1
    43    23    27   ar
    44    23    35   ar
    45    24    26    1
    46    24    28    1
    47    24    66    1
    48    25    30    1
    49    25    67    1
    50    25    68    1
    51    26    29    1
    52    26    69    1
    53    27    31   ar
    54    27    33   ar
    55    28    31   ar
    56    28    38   ar
    57    29    34    1
    58    29    70    1
    59    29    71    1
    60    30    32   ar
    61    30    40   ar
    62    31    72    1
    63    32    42   ar
    64    33    37   ar
    65    33    41   ar
    66    34    36   ar
    67    34    44   ar
    68    35    39   ar
    69    35    73    1
    70    36    45   ar
    71    37    39   ar
    72    38    43   ar
    73    38    74    1
    74    40    46   ar
    75    41    43   ar
    76    42    47   ar
    77    42    76    1
    78    44    48   ar
    79    45    49   ar
    80    45    78    1
    81    46    47   ar
    82    46    79    1
    83    48    49   ar
    84    48    80    1
    85    50    52    1
    86    51    53    1
    87    52    54   ar
    88    52    55   ar
    89    53    58   ar
    90    53    59   ar
    91    54    57   ar
    92    54    86    1
    93    55    56   ar
    94    55    87    1
    95    56    60   ar
    96    57    60   ar
    97    58    62   ar
    98    58    88    1
    99    59    61   ar
   100    59    89    1
   101    61    63   ar
   102    62    63   ar
