@<TRIPOS>MOLECULE
IMPHY013295
 43 43 0 0 0
SMALL
GASTEIGER

@<TRIPOS>ATOM
      1 O           6.8671   -0.1550    0.0000 O.3     1  UNL1       -0.4643
      2 O           6.0010   -1.6550    0.0000 O.2     1  UNL1       -0.2508
      3 O           6.0010   -4.6550    0.0000 O.2     1  UNL1       -0.3010
      4 O           9.4651   -4.6550    0.0000 O.2     1  UNL1       -0.2960
      5 O           4.2690    4.3450    0.0000 O.3     1  UNL1       -0.5033
      6 O           2.5369    3.3450    0.0000 O.3     1  UNL1       -0.5033
      7 C           7.7331   -2.6550    0.0000 C.3     1  UNL1        0.0033
      8 C           7.7331   -1.6550    0.0000 C.3     1  UNL1        0.0522
      9 C           6.8671   -3.1550    0.0000 C.3     1  UNL1        0.0102
     10 C           8.5991   -3.1550    0.0000 C.2     1  UNL1       -0.0084
     11 C           6.8671   -1.1550    0.0000 C.2     1  UNL1        0.3077
     12 C           6.0010    1.3450    0.0000 C.3     1  UNL1        0.0069
     13 C           6.0010    0.3450    0.0000 C.3     1  UNL1        0.0964
     14 C           9.4651   -2.6550    0.0000 C.2     1  UNL1       -0.0806
     15 C           5.1350    1.8450    0.0000 C.ar    1  UNL1       -0.0405
     16 C           6.8671   -4.1550    0.0000 C.2     1  UNL1        0.1209
     17 C           8.5991   -4.1550    0.0000 C.2     1  UNL1        0.1462
     18 C           5.1350    2.8450    0.0000 C.ar    1  UNL1       -0.0132
     19 C           4.2690    1.3450    0.0000 C.ar    1  UNL1       -0.0548
     20 C          10.3312   -3.1550    0.0000 C.3     1  UNL1       -0.0462
     21 C           4.2690    3.3450    0.0000 C.ar    1  UNL1        0.1585
     22 C           3.4030    1.8450    0.0000 C.ar    1  UNL1       -0.0163
     23 C           3.4030    2.8450    0.0000 C.ar    1  UNL1        0.1582
     24 H           7.7331   -3.2750    0.0000 H       1  UNL1        0.0359
     25 H           8.3437   -1.7627    0.0000 H       1  UNL1        0.0384
     26 H           7.9451   -1.0724    0.0000 H       1  UNL1        0.0384
     27 H           6.6550   -2.5724    0.0000 H       1  UNL1        0.0345
     28 H           6.2565   -3.2627    0.0000 H       1  UNL1        0.0345
     29 H           6.6116    1.2373    0.0000 H       1  UNL1        0.0346
     30 H           6.2131    1.9276    0.0000 H       1  UNL1        0.0346
     31 H           5.3905    0.4527    0.0000 H       1  UNL1        0.0701
     32 H           5.7890   -0.2376    0.0000 H       1  UNL1        0.0701
     33 H           9.4651   -2.0350    0.0000 H       1  UNL1        0.0573
     34 H           7.4040   -4.4650    0.0000 H       1  UNL1        0.1026
     35 H           8.0622   -4.4650    0.0000 H       1  UNL1        0.1078
     36 H           5.6720    3.1550    0.0000 H       1  UNL1        0.0658
     37 H           4.2690    0.7250    0.0000 H       1  UNL1        0.0621
     38 H          10.0212   -3.6919    0.0000 H       1  UNL1        0.0272
     39 H          10.8681   -3.4650    0.0000 H       1  UNL1        0.0272
     40 H          10.6412   -2.6181    0.0000 H       1  UNL1        0.0272
     41 H           2.8660    1.5350    0.0000 H       1  UNL1        0.0655
     42 H           4.8059    4.6550    0.0000 H       1  UNL1        0.2923
     43 H           2.0000    3.0350    0.0000 H       1  UNL1        0.2923
@<TRIPOS>BOND
     1     1    11    1
     2     1    13    1
     3     2    11    2
     4     3    16    2
     5     4    17    2
     6     5    21    1
     7     5    42    1
     8     6    23    1
     9     6    43    1
    10     7     8    1
    11     7     9    1
    12     7    10    1
    13     7    24    1
    14     8    11    1
    15     8    25    1
    16     8    26    1
    17     9    16    1
    18     9    27    1
    19     9    28    1
    20    10    14    2
    21    10    17    1
    22    12    13    1
    23    12    15    1
    24    12    29    1
    25    12    30    1
    26    13    31    1
    27    13    32    1
    28    14    20    1
    29    14    33    1
    30    15    18   ar
    31    15    19   ar
    32    16    34    1
    33    17    35    1
    34    18    21   ar
    35    18    36    1
    36    19    22   ar
    37    19    37    1
    38    20    38    1
    39    20    39    1
    40    20    40    1
    41    21    23   ar
    42    22    23   ar
    43    22    41    1
