@<TRIPOS>MOLECULE
IMPHY001547
 72 76 0 0 0
SMALL
GASTEIGER

@<TRIPOS>ATOM
      1 O          10.8006    2.5450    0.0000 O.3     1  UNL1       -0.4914
      2 O          12.5745    1.5209    0.0000 O.3     1  UNL1       -0.4914
      3 O           4.6438   -0.0279    0.0000 O.3     1  UNL1       -0.5031
      4 O           2.8660    0.9894    0.0000 O.3     1  UNL1       -0.4914
      5 N           9.0565   -1.5242    0.0000 N.3     1  UNL1       -0.2948
      6 N           7.2642    1.4966    0.0000 N.3     1  UNL1       -0.3089
      7 C           7.2565   -0.5034    0.0000 C.3     1  UNL1       -0.0336
      8 C           7.2565   -1.5450    0.0000 C.3     1  UNL1       -0.0255
      9 C           9.0565   -0.5242    0.0000 C.3     1  UNL1        0.0363
     10 C           8.1625    0.0104    0.0000 C.3     1  UNL1       -0.0300
     11 C           8.1625   -2.0589    0.0000 C.3     1  UNL1        0.0026
     12 C           6.3924   -0.0001    0.0000 C.3     1  UNL1       -0.0301
     13 C           9.9225   -2.0242    0.0000 C.3     1  UNL1        0.0035
     14 C           6.3924   -2.0484    0.0000 C.3     1  UNL1       -0.0516
     15 C           9.9225   -0.0242    0.0000 C.ar    1  UNL1       -0.0234
     16 C           6.3962    0.9999    0.0000 C.3     1  UNL1        0.0370
     17 C          10.7885   -1.5242    0.0000 C.3     1  UNL1       -0.0144
     18 C          10.7885   -0.5242    0.0000 C.ar    1  UNL1       -0.0378
     19 C           5.5321    1.5032    0.0000 C.ar    1  UNL1        0.0177
     20 C           6.3962   -3.0484    0.0000 C.3     1  UNL1       -0.0650
     21 C           9.9064    1.0173    0.0000 C.ar    1  UNL1       -0.0114
     22 C           7.2680    2.4966    0.0000 C.3     1  UNL1        0.0004
     23 C          11.6985   -0.0174    0.0000 C.ar    1  UNL1       -0.0128
     24 C           5.5360    2.5032    0.0000 C.ar    1  UNL1       -0.0378
     25 C           6.4039    2.9999    0.0000 C.3     1  UNL1       -0.0147
     26 C          10.8045    1.5450    0.0000 C.ar    1  UNL1        0.1618
     27 C           4.6361    0.9720    0.0000 C.ar    1  UNL1        0.1635
     28 C          11.7065    1.0242    0.0000 C.ar    1  UNL1        0.1618
     29 C           4.6441    3.0414    0.0000 C.ar    1  UNL1       -0.0545
     30 C           3.7320    1.4894    0.0000 C.ar    1  UNL1        0.1616
     31 C           3.7361    2.5310    0.0000 C.ar    1  UNL1       -0.0160
     32 C          11.6647    3.0484    0.0000 C.3     1  UNL1        0.0790
     33 C          13.4386    1.0176    0.0000 C.3     1  UNL1        0.0790
     34 C           2.0000    1.4894    0.0000 C.3     1  UNL1        0.0790
     35 H           7.2600    0.1166    0.0000 H       1  UNL1        0.0305
     36 H           6.7189   -1.2361    0.0000 H       1  UNL1        0.0316
     37 H           9.0630    0.3258    0.0000 H       1  UNL1        0.0512
     38 H           8.5671    0.4802    0.0000 H       1  UNL1        0.0286
     39 H           7.7689    0.4895    0.0000 H       1  UNL1        0.0286
     40 H           7.7689   -2.5379    0.0000 H       1  UNL1        0.0429
     41 H           8.5671   -2.5287    0.0000 H       1  UNL1        0.0429
     42 H           5.7822    0.1099    0.0000 H       1  UNL1        0.0286
     43 H           6.1781   -0.5819    0.0000 H       1  UNL1        0.0286
     44 H           9.5240   -2.4992    0.0000 H       1  UNL1        0.0430
     45 H          10.3210   -2.4992    0.0000 H       1  UNL1        0.0430
     46 H           6.1781   -1.4666    0.0000 H       1  UNL1        0.0266
     47 H           5.7822   -2.1584    0.0000 H       1  UNL1        0.0266
     48 H           6.9320    0.6879    0.0000 H       1  UNL1        0.0511
     49 H          11.0006   -2.1068    0.0000 H       1  UNL1        0.0326
     50 H          11.3991   -1.4166    0.0000 H       1  UNL1        0.0326
     51 H           7.7999    1.1845    0.0000 H       1  UNL1        0.1225
     52 H           5.7762   -3.0508    0.0000 H       1  UNL1        0.0230
     53 H           6.3986   -3.6684    0.0000 H       1  UNL1        0.0230
     54 H           7.0162   -3.0460    0.0000 H       1  UNL1        0.0230
     55 H           9.3660    1.3210    0.0000 H       1  UNL1        0.0659
     56 H           7.8782    2.3866    0.0000 H       1  UNL1        0.0427
     57 H           7.4823    3.0784    0.0000 H       1  UNL1        0.0427
     58 H          12.2318   -0.3336    0.0000 H       1  UNL1        0.0658
     59 H           6.8043    3.4733    0.0000 H       1  UNL1        0.0326
     60 H           6.0072    3.4764    0.0000 H       1  UNL1        0.0326
     61 H           4.6537    3.6613    0.0000 H       1  UNL1        0.0622
     62 H           3.2015    2.8451    0.0000 H       1  UNL1        0.0655
     63 H           4.1093   -0.3421    0.0000 H       1  UNL1        0.2923
     64 H          11.9768    2.5126    0.0000 H       1  UNL1        0.0660
     65 H          12.2004    3.3604    0.0000 H       1  UNL1        0.0660
     66 H          11.3526    3.5841    0.0000 H       1  UNL1        0.0660
     67 H          13.1265    0.4818    0.0000 H       1  UNL1        0.0660
     68 H          13.9743    0.7055    0.0000 H       1  UNL1        0.0660
     69 H          13.7507    1.5533    0.0000 H       1  UNL1        0.0660
     70 H           2.3100    2.0263    0.0000 H       1  UNL1        0.0660
     71 H           1.4631    1.7994    0.0000 H       1  UNL1        0.0660
     72 H           1.6900    0.9524    0.0000 H       1  UNL1        0.0660
@<TRIPOS>BOND
     1     1    26    1
     2     1    32    1
     3     2    28    1
     4     2    33    1
     5     3    27    1
     6     3    63    1
     7     4    30    1
     8     4    34    1
     9     5     9    1
    10     5    11    1
    11     5    13    1
    12     6    16    1
    13     6    22    1
    14     6    51    1
    15     7     8    1
    16     7    10    1
    17     7    12    1
    18     7    35    1
    19     8    11    1
    20     8    14    1
    21     8    36    1
    22     9    10    1
    23     9    15    1
    24     9    37    1
    25    10    38    1
    26    10    39    1
    27    11    40    1
    28    11    41    1
    29    16    12    1
    30    12    42    1
    31    12    43    1
    32    13    17    1
    33    13    44    1
    34    13    45    1
    35    14    20    1
    36    14    46    1
    37    14    47    1
    38    15    18   ar
    39    15    21   ar
    40    16    19    1
    41    16    48    1
    42    17    18    1
    43    17    49    1
    44    17    50    1
    45    18    23   ar
    46    19    24   ar
    47    19    27   ar
    48    20    52    1
    49    20    53    1
    50    20    54    1
    51    21    26   ar
    52    21    55    1
    53    22    25    1
    54    22    56    1
    55    22    57    1
    56    23    28   ar
    57    23    58    1
    58    24    25    1
    59    24    29   ar
    60    25    59    1
    61    25    60    1
    62    26    28   ar
    63    27    30   ar
    64    29    31   ar
    65    29    61    1
    66    30    31   ar
    67    31    62    1
    68    32    64    1
    69    32    65    1
    70    32    66    1
    71    33    67    1
    72    33    68    1
    73    33    69    1
    74    34    70    1
    75    34    71    1
    76    34    72    1
