@<TRIPOS>MOLECULE
IMPHY009030
 32 34 0 0 0
SMALL
GASTEIGER

@<TRIPOS>ATOM
      1 O           7.3991   -1.4554    0.0000 O.3     1  UNL1       -0.4914
      2 O           8.0321    0.4927    0.0000 O.3     1  UNL1       -0.4914
      3 O           4.5274    2.4052    0.0000 O.2     1  UNL1       -0.2866
      4 N           3.3424   -0.9184    0.0000 N.ar    1  UNL1       -0.2542
      5 C           5.0274   -0.1336    0.0000 C.ar    1  UNL1        0.0155
      6 C           5.3364    0.8174    0.0000 C.ar    1  UNL1        0.0352
      7 C           3.7183    0.8174    0.0000 C.ar    1  UNL1        0.0511
      8 C           4.0274   -0.1336    0.0000 C.ar    1  UNL1        0.0828
      9 C           4.5274    1.4052    0.0000 C.2     1  UNL1        0.1962
     10 C           2.7029    1.0497    0.0000 C.ar    1  UNL1       -0.0361
     11 C           5.7123   -0.9184    0.0000 C.ar    1  UNL1       -0.0064
     12 C           6.3518    1.0497    0.0000 C.ar    1  UNL1       -0.0048
     13 C           6.7328   -0.7096    0.0000 C.ar    1  UNL1        0.1621
     14 C           7.0547    0.2810    0.0000 C.ar    1  UNL1        0.1622
     15 C           2.0000    0.2810    0.0000 C.ar    1  UNL1       -0.0400
     16 C           2.4049    2.0043    0.0000 C.3     1  UNL1       -0.0389
     17 C           2.3219   -0.7096    0.0000 C.ar    1  UNL1        0.0285
     18 C           7.0864   -2.4052    0.0000 C.3     1  UNL1        0.0790
     19 C           8.3374    1.4449    0.0000 C.3     1  UNL1        0.0790
     20 H           5.5139   -1.5058    0.0000 H       1  UNL1        0.0662
     21 H           6.5365    1.6415    0.0000 H       1  UNL1        0.0663
     22 H           1.3940    0.4122    0.0000 H       1  UNL1        0.0635
     23 H           2.9968    2.1890    0.0000 H       1  UNL1        0.0278
     24 H           2.2202    2.5961    0.0000 H       1  UNL1        0.0278
     25 H           1.8131    1.8195    0.0000 H       1  UNL1        0.0278
     26 H           1.9088   -1.1720    0.0000 H       1  UNL1        0.0830
     27 H           6.4975   -2.2114    0.0000 H       1  UNL1        0.0660
     28 H           6.8926   -2.9941    0.0000 H       1  UNL1        0.0660
     29 H           7.6753   -2.5991    0.0000 H       1  UNL1        0.0660
     30 H           8.9278    1.2556    0.0000 H       1  UNL1        0.0660
     31 H           8.5267    2.0353    0.0000 H       1  UNL1        0.0660
     32 H           7.7470    1.6342    0.0000 H       1  UNL1        0.0660
@<TRIPOS>BOND
     1     1    13    1
     2     1    18    1
     3     2    14    1
     4     2    19    1
     5     3     9    2
     6     4     8   ar
     7     4    17   ar
     8     5     6   ar
     9     5     8    1
    10     5    11   ar
    11     6     9    1
    12     6    12   ar
    13     7     8   ar
    14     7     9    1
    15     7    10   ar
    16    10    15   ar
    17    10    16    1
    18    11    13   ar
    19    11    20    1
    20    12    14   ar
    21    12    21    1
    22    13    14   ar
    23    15    17   ar
    24    15    22    1
    25    16    23    1
    26    16    24    1
    27    16    25    1
    28    17    26    1
    29    18    27    1
    30    18    28    1
    31    18    29    1
    32    19    30    1
    33    19    31    1
    34    19    32    1
