@<TRIPOS>MOLECULE
IMPHY008413
 46 49 0 0 0
SMALL
GASTEIGER

@<TRIPOS>ATOM
      1 O           6.3582    0.8775    0.0000 O.2     1  UNL1       -0.4236
      2 O           8.1421    0.5032    0.0000 O.2     1  UNL1       -0.4237
      3 O           3.4981   -1.9695    0.0000 O.3     1  UNL1       -0.4914
      4 O           2.8687   -0.0268    0.0000 O.3     1  UNL1       -0.5030
      5 O           7.2151   -2.3500    0.0000 O.2     1  UNL1       -0.2861
      6 O           8.8672   -2.9232    0.0000 O.3     1  UNL1       -0.5058
      7 O          11.5069   -0.5647    0.0000 O.3     1  UNL1       -0.5065
      8 C           5.8609   -0.6532    0.0000 C.ar    1  UNL1        0.0389
      9 C           5.5545    0.2925    0.0000 C.ar    1  UNL1        0.1470
     10 C           6.8550   -0.6558    0.0000 C.ar    1  UNL1        0.1137
     11 C           4.5453    0.5242    0.0000 C.ar    1  UNL1        0.0443
     12 C           7.1640    0.2953    0.0000 C.ar    1  UNL1        0.3042
     13 C           4.2482    1.4790    0.0000 C.3     1  UNL1       -0.0021
     14 C           5.1793   -1.4327    0.0000 C.ar    1  UNL1       -0.0047
     15 C           7.5241   -1.3989    0.0000 C.ar    1  UNL1        0.2076
     16 C           3.8459   -0.2393    0.0000 C.ar    1  UNL1        0.1656
     17 C           8.5022   -1.1910    0.0000 C.ar    1  UNL1        0.1063
     18 C           4.1650   -1.2244    0.0000 C.ar    1  UNL1        0.1624
     19 C           8.8113   -0.2400    0.0000 C.ar    1  UNL1        0.1496
     20 C           3.2727    1.6991    0.0000 C.2     1  UNL1       -0.0807
     21 C           9.1872   -1.9758    0.0000 C.ar    1  UNL1        0.1347
     22 C           9.8267   -0.0077    0.0000 C.ar    1  UNL1        0.0232
     23 C          10.2077   -1.7671    0.0000 C.ar    1  UNL1        0.0223
     24 C           2.9755    2.6539    0.0000 C.2     1  UNL1       -0.0793
     25 C          10.5296   -0.7764    0.0000 C.ar    1  UNL1        0.1239
     26 C           2.0000    2.8740    0.0000 C.3     1  UNL1       -0.0440
     27 C           3.6538    3.3887    0.0000 C.3     1  UNL1       -0.0440
     28 C           3.8100   -2.9196    0.0000 C.3     1  UNL1        0.0790
     29 H           4.8631    1.5577    0.0000 H       1  UNL1        0.0358
     30 H           4.2775    2.0984    0.0000 H       1  UNL1        0.0358
     31 H           5.3772   -2.0203    0.0000 H       1  UNL1        0.0663
     32 H           2.8521    1.2435    0.0000 H       1  UNL1        0.0575
     33 H          10.0114    0.5841    0.0000 H       1  UNL1        0.0691
     34 H          10.6208   -2.2294    0.0000 H       1  UNL1        0.0691
     35 H           2.4517   -0.4856    0.0000 H       1  UNL1        0.2923
     36 H           2.1364    3.4788    0.0000 H       1  UNL1        0.0274
     37 H           4.1094    2.9681    0.0000 H       1  UNL1        0.0274
     38 H           4.0744    3.8443    0.0000 H       1  UNL1        0.0274
     39 H           3.1982    3.8092    0.0000 H       1  UNL1        0.0274
     40 H           1.3952    3.0104    0.0000 H       1  UNL1        0.0274
     41 H           1.8636    2.2692    0.0000 H       1  UNL1        0.0274
     42 H           3.2209   -3.1130    0.0000 H       1  UNL1        0.0660
     43 H           4.0033   -3.5087    0.0000 H       1  UNL1        0.0660
     44 H           4.3990   -2.7263    0.0000 H       1  UNL1        0.0660
     45 H           9.2767   -3.3887    0.0000 H       1  UNL1        0.2922
     46 H          11.9236   -1.0239    0.0000 H       1  UNL1        0.2921
@<TRIPOS>BOND
     1     1     9   ar
     2     1    12   ar
     3     2    12   ar
     4     2    19   ar
     5     3    18    1
     6     3    28    1
     7     4    16    1
     8     4    35    1
     9     5    15    2
    10     6    21    1
    11     6    45    1
    12     7    25    1
    13     7    46    1
    14     8     9   ar
    15     8    10   ar
    16     8    14   ar
    17     9    11   ar
    18    10    12   ar
    19    10    15   ar
    20    11    13    1
    21    11    16   ar
    22    13    20    1
    23    13    29    1
    24    13    30    1
    25    14    18   ar
    26    14    31    1
    27    15    17   ar
    28    16    18   ar
    29    17    19   ar
    30    17    21   ar
    31    19    22   ar
    32    20    24    2
    33    20    32    1
    34    21    23   ar
    35    22    25   ar
    36    22    33    1
    37    23    25   ar
    38    23    34    1
    39    24    26    1
    40    24    27    1
    41    26    36    1
    42    26    40    1
    43    26    41    1
    44    27    37    1
    45    27    38    1
    46    27    39    1
    47    28    42    1
    48    28    43    1
    49    28    44    1
