@<TRIPOS>MOLECULE
IMPHY000622
 71 76 0 0 0
SMALL
GASTEIGER

@<TRIPOS>ATOM
      1 O           6.7942   -2.1586    0.0000 O.3     1  UNL1       -0.4811
      2 O           9.5801    0.6258    0.0000 O.3     1  UNL1       -0.4808
      3 O           5.8505    0.3132    0.0000 O.3     1  UNL1       -0.3868
      4 O          11.3503    2.6846    0.0000 O.3     1  UNL1       -0.3875
      5 O           5.9693    1.3342    0.0000 O.3     1  UNL1       -0.5062
      6 O           7.8201    3.6605    0.0000 O.3     1  UNL1       -0.5063
      7 O           9.9024   -0.1970    0.0000 O.3     1  UNL1       -0.5062
      8 O          10.1030   -3.3887    0.0000 O.3     1  UNL1       -0.5065
      9 O          13.9502    1.1263    0.0000 O.3     1  UNL1       -0.5032
     10 O          12.2066   -1.8670    0.0000 O.3     1  UNL1       -0.5032
     11 O          13.9425   -0.8737    0.0000 O.3     1  UNL1       -0.4885
     12 O           2.2120   -2.0872    0.0000 O.3     1  UNL1       -0.5068
     13 C           7.4782   -0.2793    0.0000 C.3     1  UNL1        0.0528
     14 C           6.4933   -0.4529    0.0000 C.3     1  UNL1        0.1074
     15 C           7.8201    0.6605    0.0000 C.ar    1  UNL1        0.0463
     16 C           6.1513   -1.3926    0.0000 C.3     1  UNL1        0.1517
     17 C           8.1209   -1.0453    0.0000 C.ar    1  UNL1        0.0461
     18 C           8.6862    1.1605    0.0000 C.ar    1  UNL1        0.1355
     19 C           8.6862    2.1605    0.0000 C.ar    1  UNL1        0.0387
     20 C          10.4862    2.1813    0.0000 C.3     1  UNL1        0.1004
     21 C          10.4862    1.1396    0.0000 C.3     1  UNL1        0.1514
     22 C           9.5801    2.6951    0.0000 C.3     1  UNL1        0.0092
     23 C           7.7789   -1.9850    0.0000 C.ar    1  UNL1        0.1323
     24 C           6.9541    1.1605    0.0000 C.ar    1  UNL1        0.1277
     25 C           5.1665   -1.5662    0.0000 C.ar    1  UNL1       -0.0046
     26 C           7.8201    2.6605    0.0000 C.ar    1  UNL1        0.1271
     27 C           9.1438   -0.8486    0.0000 C.ar    1  UNL1        0.1276
     28 C           6.9541    2.1605    0.0000 C.ar    1  UNL1        0.0221
     29 C          11.3503    0.6363    0.0000 C.ar    1  UNL1        0.0023
     30 C           8.4360   -2.7931    0.0000 C.ar    1  UNL1        0.0221
     31 C           9.8195   -1.6414    0.0000 C.ar    1  UNL1        0.0218
     32 C           9.4632   -2.6202    0.0000 C.ar    1  UNL1        0.1238
     33 C           4.5237   -0.8002    0.0000 C.ar    1  UNL1       -0.0515
     34 C           4.8245   -2.5059    0.0000 C.ar    1  UNL1       -0.0515
     35 C          11.3464   -0.3637    0.0000 C.ar    1  UNL1       -0.0095
     36 C          12.2182    1.1330    0.0000 C.ar    1  UNL1       -0.0095
     37 C           3.5389   -0.9738    0.0000 C.ar    1  UNL1       -0.0198
     38 C           3.8397   -2.6796    0.0000 C.ar    1  UNL1       -0.0198
     39 C          13.0823    0.6296    0.0000 C.ar    1  UNL1        0.1625
     40 C          12.2105   -0.8670    0.0000 C.ar    1  UNL1        0.1625
     41 C           3.1969   -1.9135    0.0000 C.ar    1  UNL1        0.1169
     42 C          13.0784   -0.3704    0.0000 C.ar    1  UNL1        0.2031
     43 C          14.8105   -0.3770    0.0000 C.3     1  UNL1        0.0791
     44 H           6.9318    0.3719    0.0000 H       1  UNL1        0.0429
     45 H           5.8827   -0.5606    0.0000 H       1  UNL1        0.0643
     46 H           5.9393   -1.9752    0.0000 H       1  UNL1        0.0811
     47 H          11.0237    1.8723    0.0000 H       1  UNL1        0.0637
     48 H          11.0237    1.4486    0.0000 H       1  UNL1        0.0811
     49 H           9.9737    3.1742    0.0000 H       1  UNL1        0.0342
     50 H           9.1755    3.1649    0.0000 H       1  UNL1        0.0342
     51 H           6.4172    2.4705    0.0000 H       1  UNL1        0.0691
     52 H           5.2399    0.2055    0.0000 H       1  UNL1        0.2100
     53 H           8.2173   -3.3732    0.0000 H       1  UNL1        0.0691
     54 H          10.4296   -1.5313    0.0000 H       1  UNL1        0.0691
     55 H           4.7357   -0.2176    0.0000 H       1  UNL1        0.0623
     56 H           5.2230   -2.9809    0.0000 H       1  UNL1        0.0623
     57 H          11.3479    3.3046    0.0000 H       1  UNL1        0.2100
     58 H          10.8083   -0.6716    0.0000 H       1  UNL1        0.0659
     59 H          12.2206    1.7530    0.0000 H       1  UNL1        0.0659
     60 H           5.7573    1.9168    0.0000 H       1  UNL1        0.2921
     61 H           7.2832    3.9705    0.0000 H       1  UNL1        0.2921
     62 H          10.4874   -0.4023    0.0000 H       1  UNL1        0.2921
     63 H           3.1403   -0.4989    0.0000 H       1  UNL1        0.0654
     64 H           3.6276   -3.2622    0.0000 H       1  UNL1        0.0654
     65 H           9.8887   -3.9705    0.0000 H       1  UNL1        0.2921
     66 H          13.9526    1.7463    0.0000 H       1  UNL1        0.2923
     67 H          12.7424   -2.1791    0.0000 H       1  UNL1        0.2923
     68 H           2.0000   -2.6698    0.0000 H       1  UNL1        0.2921
     69 H          15.1184   -0.9152    0.0000 H       1  UNL1        0.0660
     70 H          15.3486   -0.0691    0.0000 H       1  UNL1        0.0660
     71 H          14.5025    0.1611    0.0000 H       1  UNL1        0.0660
@<TRIPOS>BOND
     1     1    16    1
     2     1    23    1
     3     2    18    1
     4     2    21    1
     5    14     3    1
     6     3    52    1
     7    20     4    1
     8     4    57    1
     9     5    24    1
    10     5    60    1
    11     6    26    1
    12     6    61    1
    13     7    27    1
    14     7    62    1
    15     8    32    1
    16     8    65    1
    17     9    39    1
    18     9    66    1
    19    10    40    1
    20    10    67    1
    21    11    42    1
    22    11    43    1
    23    12    41    1
    24    12    68    1
    25    13    14    1
    26    13    15    1
    27    13    17    1
    28    13    44    1
    29    14    16    1
    30    14    45    1
    31    15    18   ar
    32    15    24   ar
    33    16    25    1
    34    16    46    1
    35    17    23   ar
    36    17    27   ar
    37    18    19   ar
    38    19    22    1
    39    19    26   ar
    40    20    21    1
    41    20    22    1
    42    20    47    1
    43    21    29    1
    44    21    48    1
    45    22    49    1
    46    22    50    1
    47    23    30   ar
    48    24    28   ar
    49    25    33   ar
    50    25    34   ar
    51    26    28   ar
    52    27    31   ar
    53    28    51    1
    54    29    35   ar
    55    29    36   ar
    56    30    32   ar
    57    30    53    1
    58    31    32   ar
    59    31    54    1
    60    33    37   ar
    61    33    55    1
    62    34    38   ar
    63    34    56    1
    64    35    40   ar
    65    35    58    1
    66    36    39   ar
    67    36    59    1
    68    37    41   ar
    69    37    63    1
    70    38    41   ar
    71    38    64    1
    72    39    42   ar
    73    40    42   ar
    74    43    69    1
    75    43    70    1
    76    43    71    1
