@<TRIPOS>MOLECULE
IMPHY009102
 53 57 0 0 0
SMALL
GASTEIGER

@<TRIPOS>ATOM
      1 O           5.4396    2.3396    0.0000 O.3     1  UNL1       -0.5029
      2 O           8.0819   -1.2160    0.0000 O.3     1  UNL1       -0.4914
      3 O           8.0819    0.8323    0.0000 O.3     1  UNL1       -0.4914
      4 O           3.6736    3.3774    0.0000 O.3     1  UNL1       -0.4914
      5 N           3.6698   -2.7611    0.0000 N.3     1  UNL1       -0.2951
      6 C           2.7677   -2.2403    0.0000 C.3     1  UNL1        0.0294
      7 C           4.5518   -1.1918    0.0000 C.3     1  UNL1        0.0230
      8 C           4.5678   -2.2334    0.0000 C.3     1  UNL1        0.0103
      9 C           2.0000   -2.9352    0.0000 C.3     1  UNL1       -0.0326
     10 C           3.4519   -3.7734    0.0000 C.3     1  UNL1       -0.0005
     11 C           2.4220   -3.8807    0.0000 C.3     1  UNL1       -0.0385
     12 C           3.6857   -0.6919    0.0000 C.2     1  UNL1       -0.0333
     13 C           2.7757   -1.1987    0.0000 C.2     1  UNL1       -0.0626
     14 C           5.4178   -0.6919    0.0000 C.ar    1  UNL1       -0.0272
     15 C           3.6857    0.3081    0.0000 C.ar    1  UNL1       -0.0100
     16 C           5.4178    0.3081    0.0000 C.ar    1  UNL1       -0.0062
     17 C           4.5518    0.8081    0.0000 C.ar    1  UNL1        0.0350
     18 C           6.3117   -1.2265    0.0000 C.ar    1  UNL1       -0.0119
     19 C           2.7757    0.8150    0.0000 C.ar    1  UNL1       -0.0501
     20 C           6.3117    0.8428    0.0000 C.ar    1  UNL1       -0.0082
     21 C           4.5678    1.8496    0.0000 C.ar    1  UNL1        0.1669
     22 C           7.2178   -0.7127    0.0000 C.ar    1  UNL1        0.1618
     23 C           7.2178    0.3290    0.0000 C.ar    1  UNL1        0.1621
     24 C           2.7677    1.8566    0.0000 C.ar    1  UNL1       -0.0157
     25 C           3.6698    2.3774    0.0000 C.ar    1  UNL1        0.1619
     26 C           8.0780   -2.2160    0.0000 C.3     1  UNL1        0.0790
     27 C           8.9498    0.3356    0.0000 C.3     1  UNL1        0.0790
     28 C           2.8095    3.8807    0.0000 C.3     1  UNL1        0.0790
     29 H           1.9921   -1.8926    0.0000 H       1  UNL1        0.0506
     30 H           5.2911   -1.6112    0.0000 H       1  UNL1        0.0410
     31 H           4.7858   -2.8138    0.0000 H       1  UNL1        0.0436
     32 H           5.1770   -2.1179    0.0000 H       1  UNL1        0.0436
     33 H           1.6346   -2.4343    0.0000 H       1  UNL1        0.0284
     34 H           1.4635   -3.2459    0.0000 H       1  UNL1        0.0284
     35 H           3.4510   -4.3934    0.0000 H       1  UNL1        0.0427
     36 H           4.0683   -3.8394    0.0000 H       1  UNL1        0.0427
     37 H           1.8324   -4.0725    0.0000 H       1  UNL1        0.0278
     38 H           2.5507   -4.4872    0.0000 H       1  UNL1        0.0278
     39 H           2.2424   -0.8825    0.0000 H       1  UNL1        0.0591
     40 H           6.3046   -1.8465    0.0000 H       1  UNL1        0.0658
     41 H           2.2424    0.4988    0.0000 H       1  UNL1        0.0625
     42 H           6.3046    1.4628    0.0000 H       1  UNL1        0.0661
     43 H           2.2296    2.1645    0.0000 H       1  UNL1        0.0655
     44 H           5.4467    2.9596    0.0000 H       1  UNL1        0.2923
     45 H           7.4580   -2.2136    0.0000 H       1  UNL1        0.0660
     46 H           8.0756   -2.8360    0.0000 H       1  UNL1        0.0660
     47 H           8.6980   -2.2184    0.0000 H       1  UNL1        0.0660
     48 H           8.6419   -0.2025    0.0000 H       1  UNL1        0.0660
     49 H           9.4880    0.0277    0.0000 H       1  UNL1        0.0660
     50 H           9.2578    0.8738    0.0000 H       1  UNL1        0.0660
     51 H           3.1216    4.4165    0.0000 H       1  UNL1        0.0660
     52 H           2.2738    4.1928    0.0000 H       1  UNL1        0.0660
     53 H           2.4975    3.3450    0.0000 H       1  UNL1        0.0660
@<TRIPOS>BOND
     1     1    21    1
     2     1    44    1
     3     2    22    1
     4     2    26    1
     5     3    23    1
     6     3    27    1
     7     4    25    1
     8     4    28    1
     9     5     6    1
    10     5     8    1
    11     5    10    1
    12     6     9    1
    13     6    13    1
    14     6    29    1
    15     7     8    1
    16     7    12    1
    17     7    14    1
    18     7    30    1
    19     8    31    1
    20     8    32    1
    21     9    11    1
    22     9    33    1
    23     9    34    1
    24    10    11    1
    25    10    35    1
    26    10    36    1
    27    11    37    1
    28    11    38    1
    29    12    13    2
    30    12    15    1
    31    13    39    1
    32    14    16   ar
    33    14    18   ar
    34    15    17   ar
    35    15    19   ar
    36    16    17    1
    37    16    20   ar
    38    17    21   ar
    39    18    22   ar
    40    18    40    1
    41    19    24   ar
    42    19    41    1
    43    20    23   ar
    44    20    42    1
    45    21    25   ar
    46    22    23   ar
    47    24    25   ar
    48    24    43    1
    49    26    45    1
    50    26    46    1
    51    26    47    1
    52    27    48    1
    53    27    49    1
    54    27    50    1
    55    28    51    1
    56    28    52    1
    57    28    53    1
