@<TRIPOS>MOLECULE
IMPHY001583
 38 41 0 0 0
SMALL
GASTEIGER

@<TRIPOS>ATOM
      1 O           2.0000   -0.5094    0.0000 O.2     1  UNL1       -0.2968
      2 C           3.2320    1.0294    0.0000 C.3     1  UNL1       -0.0249
      3 C           4.2320    1.0294    0.0000 C.3     1  UNL1       -0.0311
      4 C           3.7320    1.8959    0.0000 C.3     1  UNL1       -0.0314
      5 C           3.7320   -0.5094    0.0000 C.3     1  UNL1        0.0354
      6 C           4.5981   -1.0094    0.0000 C.3     1  UNL1       -0.0169
      7 C           2.9230    0.0783    0.0000 C.3     1  UNL1       -0.0342
      8 C           4.5411    0.0783    0.0000 C.3     1  UNL1       -0.0365
      9 C           5.0038    0.6933    0.0000 C.3     1  UNL1       -0.0429
     10 C           2.2320    1.0294    0.0000 C.3     1  UNL1       -0.0590
     11 C           4.5981   -2.0094    0.0000 C.3     1  UNL1       -0.0372
     12 C           2.8660   -1.0094    0.0000 C.2     1  UNL1        0.1400
     13 C           5.5912   -1.1261    0.0000 C.3     1  UNL1       -0.0584
     14 C           3.7320   -2.5094    0.0000 C.3     1  UNL1       -0.0432
     15 C           2.8660   -2.0094    0.0000 C.3     1  UNL1        0.0067
     16 C           5.4641   -2.5094    0.0000 C.3     1  UNL1       -0.0619
     17 H           4.9682    1.4544    0.0000 H       1  UNL1        0.0309
     18 H           3.6092    2.7370    0.0000 H       1  UNL1        0.0309
     19 H           2.3566    0.3305    0.0000 H       1  UNL1        0.0280
     20 H           2.6130   -0.4586    0.0000 H       1  UNL1        0.0280
     21 H           4.8511   -0.4586    0.0000 H       1  UNL1        0.0278
     22 H           5.1075    0.3305    0.0000 H       1  UNL1        0.0278
     23 H           5.5728    0.4470    0.0000 H       1  UNL1        0.0274
     24 H           5.3451    1.2108    0.0000 H       1  UNL1        0.0274
     25 H           2.2320    1.6494    0.0000 H       1  UNL1        0.0235
     26 H           1.6120    1.0294    0.0000 H       1  UNL1        0.0235
     27 H           2.2320    0.4094    0.0000 H       1  UNL1        0.0235
     28 H           4.5981   -2.6294    0.0000 H       1  UNL1        0.0304
     29 H           5.5189   -1.7419    0.0000 H       1  UNL1        0.0235
     30 H           6.2070   -1.1985    0.0000 H       1  UNL1        0.0235
     31 H           5.6636   -0.5104    0.0000 H       1  UNL1        0.0235
     32 H           3.3335   -2.9844    0.0000 H       1  UNL1        0.0272
     33 H           4.1306   -2.9844    0.0000 H       1  UNL1        0.0272
     34 H           2.2554   -1.9018    0.0000 H       1  UNL1        0.0342
     35 H           2.6540   -2.5920    0.0000 H       1  UNL1        0.0342
     36 H           5.1541   -3.0464    0.0000 H       1  UNL1        0.0233
     37 H           6.0010   -2.8194    0.0000 H       1  UNL1        0.0233
     38 H           5.7741   -1.9725    0.0000 H       1  UNL1        0.0233
@<TRIPOS>BOND
     1     1    12    2
     2     2     3    1
     3     2     4    1
     4     2     7    1
     5     2    10    1
     6     3     4    1
     7     3     8    1
     8     3    17    1
     9     4     9    1
    10     4    18    1
    11     5     6    1
    12     5     7    1
    13     5     8    1
    14     5    12    1
    15     6     9    1
    16     6    11    1
    17     6    13    1
    18     7    19    1
    19     7    20    1
    20     8    21    1
    21     8    22    1
    22     9    23    1
    23     9    24    1
    24    10    25    1
    25    10    26    1
    26    10    27    1
    27    11    14    1
    28    11    16    1
    29    11    28    1
    30    12    15    1
    31    13    29    1
    32    13    30    1
    33    13    31    1
    34    14    15    1
    35    14    32    1
    36    14    33    1
    37    15    34    1
    38    15    35    1
    39    16    36    1
    40    16    37    1
    41    16    38    1
