@<TRIPOS>MOLECULE
IMPHY000019
 117 120 0 0 0
SMALL
GASTEIGER

@<TRIPOS>ATOM
      1 O           6.8671   11.5950    0.0000 O.3     1  UNL1       -0.3903
      2 O           2.5369  -10.9050    0.0000 O.3     1  UNL1       -0.3903
      3 N           7.7331    9.0950    0.0000 N.3     1  UNL1       -0.3083
      4 N           5.1350  -10.4050    0.0000 N.3     1  UNL1       -0.3083
      5 N          12.0632   -1.4050    0.0000 N.ar    1  UNL1       -0.2007
      6 C           6.8671    8.5950    0.0000 C.3     1  UNL1        0.0080
      7 C           5.1350   -9.4050    0.0000 C.3     1  UNL1        0.0080
      8 C           6.0010    9.0950    0.0000 C.3     1  UNL1       -0.0352
      9 C           4.2690   -8.9050    0.0000 C.3     1  UNL1       -0.0352
     10 C           7.7331   10.0950    0.0000 C.3     1  UNL1        0.0310
     11 C           4.2690  -10.9050    0.0000 C.3     1  UNL1        0.0310
     12 C           6.8671   10.5950    0.0000 C.3     1  UNL1        0.0703
     13 C           3.4030  -10.4050    0.0000 C.3     1  UNL1        0.0703
     14 C           6.0010   10.0950    0.0000 C.3     1  UNL1       -0.0240
     15 C           3.4030   -9.4050    0.0000 C.3     1  UNL1       -0.0240
     16 C           6.8671    7.5950    0.0000 C.3     1  UNL1       -0.0375
     17 C           6.0010   -8.9050    0.0000 C.3     1  UNL1       -0.0375
     18 C           7.7331    7.0950    0.0000 C.3     1  UNL1       -0.0516
     19 C           6.0010   -7.9050    0.0000 C.3     1  UNL1       -0.0516
     20 C           8.5991   10.5950    0.0000 C.3     1  UNL1       -0.0473
     21 C           4.2690  -11.9050    0.0000 C.3     1  UNL1       -0.0473
     22 C           7.7331    6.0950    0.0000 C.3     1  UNL1       -0.0530
     23 C           6.8671   -7.4050    0.0000 C.3     1  UNL1       -0.0530
     24 C           8.5991    5.5950    0.0000 C.3     1  UNL1       -0.0531
     25 C           6.8671   -6.4050    0.0000 C.3     1  UNL1       -0.0531
     26 C          12.0632   -0.4050    0.0000 C.ar    1  UNL1        0.1873
     27 C           8.5991    4.5950    0.0000 C.3     1  UNL1       -0.0531
     28 C          13.0094   -0.1003    0.0000 C.3     1  UNL1        0.0385
     29 C           7.7331   -5.9050    0.0000 C.3     1  UNL1       -0.0531
     30 C          11.1972    0.0950    0.0000 C.ar    1  UNL1        0.0197
     31 C          13.0094   -1.7097    0.0000 C.3     1  UNL1        0.1512
     32 C          13.5930   -0.9050    0.0000 C.3     1  UNL1        0.0164
     33 C           9.4651    4.0950    0.0000 C.3     1  UNL1       -0.0531
     34 C          11.1972    1.0950    0.0000 C.3     1  UNL1       -0.0218
     35 C           7.7331   -4.9050    0.0000 C.3     1  UNL1       -0.0531
     36 C           9.4651    3.0950    0.0000 C.3     1  UNL1       -0.0530
     37 C          10.3312    1.5950    0.0000 C.3     1  UNL1       -0.0489
     38 C          10.3312   -1.4050    0.0000 C.ar    1  UNL1        0.0165
     39 C          10.3312    2.5950    0.0000 C.3     1  UNL1       -0.0528
     40 C           8.5991   -4.4050    0.0000 C.3     1  UNL1       -0.0530
     41 C          11.1972   -1.9050    0.0000 C.ar    1  UNL1        0.1746
     42 C           9.4651   -1.9050    0.0000 C.3     1  UNL1       -0.0221
     43 C          10.3312   -0.4050    0.0000 C.ar    1  UNL1       -0.0439
     44 C           8.5991   -3.4050    0.0000 C.3     1  UNL1       -0.0528
     45 C           9.4651   -2.9050    0.0000 C.3     1  UNL1       -0.0489
     46 H           7.4040    8.2850    0.0000 H       1  UNL1        0.0460
     47 H           5.6720   -9.7150    0.0000 H       1  UNL1        0.0460
     48 H           5.3905    9.2027    0.0000 H       1  UNL1        0.0281
     49 H           5.7890    8.5124    0.0000 H       1  UNL1        0.0281
     50 H           4.6675   -8.4300    0.0000 H       1  UNL1        0.0281
     51 H           3.8705   -8.4300    0.0000 H       1  UNL1        0.0281
     52 H           8.2700    9.7850    0.0000 H       1  UNL1        0.0483
     53 H           4.8059  -11.2150    0.0000 H       1  UNL1        0.0483
     54 H           6.3301   10.9050    0.0000 H       1  UNL1        0.0609
     55 H           3.4030  -11.0250    0.0000 H       1  UNL1        0.0609
     56 H           5.7890   10.6776    0.0000 H       1  UNL1        0.0291
     57 H           5.3905    9.9873    0.0000 H       1  UNL1        0.0291
     58 H           3.1909   -8.8224    0.0000 H       1  UNL1        0.0291
     59 H           2.7924   -9.5127    0.0000 H       1  UNL1        0.0291
     60 H           6.2565    7.7027    0.0000 H       1  UNL1        0.0280
     61 H           6.6550    7.0124    0.0000 H       1  UNL1        0.0280
     62 H           6.2131   -9.4876    0.0000 H       1  UNL1        0.0280
     63 H           6.6116   -8.7973    0.0000 H       1  UNL1        0.0280
     64 H           8.2700    8.7850    0.0000 H       1  UNL1        0.1225
     65 H           5.6720  -10.7150    0.0000 H       1  UNL1        0.1225
     66 H           8.3437    6.9873    0.0000 H       1  UNL1        0.0266
     67 H           7.9451    7.6776    0.0000 H       1  UNL1        0.0266
     68 H           5.7890   -7.3224    0.0000 H       1  UNL1        0.0266
     69 H           5.3905   -8.0127    0.0000 H       1  UNL1        0.0266
     70 H           8.9091   10.0581    0.0000 H       1  UNL1        0.0245
     71 H           9.1360   10.9050    0.0000 H       1  UNL1        0.0245
     72 H           8.2891   11.1319    0.0000 H       1  UNL1        0.0245
     73 H           3.6490  -11.9050    0.0000 H       1  UNL1        0.0245
     74 H           4.2690  -12.5250    0.0000 H       1  UNL1        0.0245
     75 H           4.8890  -11.9050    0.0000 H       1  UNL1        0.0245
     76 H           7.1225    6.2027    0.0000 H       1  UNL1        0.0265
     77 H           7.5210    5.5124    0.0000 H       1  UNL1        0.0265
     78 H           7.0791   -7.9876    0.0000 H       1  UNL1        0.0265
     79 H           7.4776   -7.2973    0.0000 H       1  UNL1        0.0265
     80 H           9.2097    5.4873    0.0000 H       1  UNL1        0.0265
     81 H           8.8112    6.1776    0.0000 H       1  UNL1        0.0265
     82 H           6.6550   -5.8224    0.0000 H       1  UNL1        0.0265
     83 H           6.2565   -6.5127    0.0000 H       1  UNL1        0.0265
     84 H           6.3301   11.9050    0.0000 H       1  UNL1        0.2098
     85 H           2.0000  -10.5950    0.0000 H       1  UNL1        0.2098
     86 H           7.9885    4.7027    0.0000 H       1  UNL1        0.0265
     87 H           8.3871    4.0124    0.0000 H       1  UNL1        0.0265
     88 H          13.5468    0.2090    0.0000 H       1  UNL1        0.0374
     89 H          12.7584    0.4666    0.0000 H       1  UNL1        0.0374
     90 H           7.9451   -6.4876    0.0000 H       1  UNL1        0.0265
     91 H           8.3437   -5.7973    0.0000 H       1  UNL1        0.0265
     92 H          12.7584   -2.2766    0.0000 H       1  UNL1        0.1030
     93 H          13.5468   -2.0190    0.0000 H       1  UNL1        0.1030
     94 H          14.0539   -1.3197    0.0000 H       1  UNL1        0.0332
     95 H          14.0539   -0.4903    0.0000 H       1  UNL1        0.0332
     96 H          10.0757    3.9873    0.0000 H       1  UNL1        0.0265
     97 H           9.6772    4.6776    0.0000 H       1  UNL1        0.0265
     98 H          11.8078    0.9873    0.0000 H       1  UNL1        0.0315
     99 H          11.4092    1.6776    0.0000 H       1  UNL1        0.0315
    100 H           7.5210   -4.3224    0.0000 H       1  UNL1        0.0265
    101 H           7.1225   -5.0127    0.0000 H       1  UNL1        0.0265
    102 H           8.8546    3.2027    0.0000 H       1  UNL1        0.0265
    103 H           9.2531    2.5124    0.0000 H       1  UNL1        0.0265
    104 H           9.7206    1.7027    0.0000 H       1  UNL1        0.0268
    105 H          10.1191    1.0124    0.0000 H       1  UNL1        0.0268
    106 H          10.9417    2.4873    0.0000 H       1  UNL1        0.0265
    107 H          10.5432    3.1776    0.0000 H       1  UNL1        0.0265
    108 H           8.8112   -4.9876    0.0000 H       1  UNL1        0.0265
    109 H           9.2097   -4.2973    0.0000 H       1  UNL1        0.0265
    110 H          11.1972   -2.5250    0.0000 H       1  UNL1        0.1379
    111 H           9.2531   -1.3224    0.0000 H       1  UNL1        0.0315
    112 H           8.8546   -2.0127    0.0000 H       1  UNL1        0.0315
    113 H           9.7942   -0.0950    0.0000 H       1  UNL1        0.0627
    114 H           8.3871   -2.8224    0.0000 H       1  UNL1        0.0265
    115 H           7.9885   -3.5127    0.0000 H       1  UNL1        0.0265
    116 H           9.6772   -3.4876    0.0000 H       1  UNL1        0.0268
    117 H          10.0757   -2.7973    0.0000 H       1  UNL1        0.0268
@<TRIPOS>UNITY_ATOM_ATTR
5 1
charge 1
@<TRIPOS>BOND
     1    12     1    1
     2     1    84    1
     3    13     2    1
     4     2    85    1
     5     3     6    1
     6     3    10    1
     7     3    64    1
     8     4     7    1
     9     4    11    1
    10     4    65    1
    11     5    26   ar
    12     5    31    1
    13     5    41   ar
    14     6     8    1
    15     6    16    1
    16     6    46    1
    17     7     9    1
    18     7    17    1
    19     7    47    1
    20     8    14    1
    21     8    48    1
    22     8    49    1
    23     9    15    1
    24     9    50    1
    25     9    51    1
    26    10    12    1
    27    10    20    1
    28    10    52    1
    29    11    13    1
    30    11    21    1
    31    11    53    1
    32    12    14    1
    33    12    54    1
    34    13    15    1
    35    13    55    1
    36    14    56    1
    37    14    57    1
    38    15    58    1
    39    15    59    1
    40    16    18    1
    41    16    60    1
    42    16    61    1
    43    17    19    1
    44    17    62    1
    45    17    63    1
    46    18    22    1
    47    18    66    1
    48    18    67    1
    49    19    23    1
    50    19    68    1
    51    19    69    1
    52    20    70    1
    53    20    71    1
    54    20    72    1
    55    21    73    1
    56    21    74    1
    57    21    75    1
    58    22    24    1
    59    22    76    1
    60    22    77    1
    61    23    25    1
    62    23    78    1
    63    23    79    1
    64    24    27    1
    65    24    80    1
    66    24    81    1
    67    25    29    1
    68    25    82    1
    69    25    83    1
    70    26    28    1
    71    26    30   ar
    72    27    33    1
    73    27    86    1
    74    27    87    1
    75    28    32    1
    76    28    88    1
    77    28    89    1
    78    29    35    1
    79    29    90    1
    80    29    91    1
    81    30    34    1
    82    30    43   ar
    83    31    32    1
    84    31    92    1
    85    31    93    1
    86    32    94    1
    87    32    95    1
    88    33    36    1
    89    33    96    1
    90    33    97    1
    91    34    37    1
    92    34    98    1
    93    34    99    1
    94    35    40    1
    95    35   100    1
    96    35   101    1
    97    36    39    1
    98    36   102    1
    99    36   103    1
   100    37    39    1
   101    37   104    1
   102    37   105    1
   103    38    41   ar
   104    38    42    1
   105    38    43   ar
   106    39   106    1
   107    39   107    1
   108    40    44    1
   109    40   108    1
   110    40   109    1
   111    41   110    1
   112    42    45    1
   113    42   111    1
   114    42   112    1
   115    43   113    1
   116    44    45    1
   117    44   114    1
   118    44   115    1
   119    45   116    1
   120    45   117    1
