@<TRIPOS>MOLECULE
IMPHY003541
 39 42 0 0 0
SMALL
GASTEIGER

@<TRIPOS>ATOM
      1 O           5.6646    2.6866    0.0000 O.3     1  UNL1       -0.3649
      2 O           2.0000   -0.2458    0.0000 O.3     1  UNL1       -0.3650
      3 O           6.4014   -0.9128    0.0000 O.3     1  UNL1       -0.4574
      4 O           6.4963   -2.6866    0.0000 O.2     1  UNL1       -0.2453
      5 C           2.7076    0.4614    0.0000 C.3     1  UNL1        0.0933
      6 C           5.6644    1.6862    0.0000 C.3     1  UNL1        0.0966
      7 C           4.7984    2.1862    0.0000 C.3     1  UNL1        0.0883
      8 C           2.9664   -0.5045    0.0000 C.3     1  UNL1        0.0888
      9 C           3.6735    0.7202    0.0000 C.3     1  UNL1       -0.0191
     10 C           3.9324    1.6862    0.0000 C.3     1  UNL1       -0.0212
     11 C           5.6644    0.6862    0.0000 C.3     1  UNL1        0.0163
     12 C           3.9324   -0.2457    0.0000 C.3     1  UNL1       -0.0134
     13 C           4.7984   -0.7457    0.0000 C.3     1  UNL1        0.0300
     14 C           5.6644   -0.2457    0.0000 C.3     1  UNL1        0.1131
     15 C           2.4488    1.4273    0.0000 C.3     1  UNL1       -0.0334
     16 C           6.5304    1.1862    0.0000 C.3     1  UNL1       -0.0332
     17 C           5.0076   -1.7175    0.0000 C.2     1  UNL1        0.0362
     18 C           5.9963   -1.8206    0.0000 C.2     1  UNL1        0.3353
     19 C           4.3397   -2.4618    0.0000 C.2     1  UNL1       -0.0883
     20 H           4.4883    2.7231    0.0000 H       1  UNL1        0.0625
     21 H           2.9665   -1.1245    0.0000 H       1  UNL1        0.0625
     22 H           3.7276    0.1026    0.0000 H       1  UNL1        0.0294
     23 H           4.2912    0.6662    0.0000 H       1  UNL1        0.0294
     24 H           3.7719    2.2850    0.0000 H       1  UNL1        0.0292
     25 H           3.3124    1.6862    0.0000 H       1  UNL1        0.0292
     26 H           6.2013    0.3762    0.0000 H       1  UNL1        0.0330
     27 H           5.0444    0.6862    0.0000 H       1  UNL1        0.0330
     28 H           4.3708    0.1927    0.0000 H       1  UNL1        0.0298
     29 H           3.6224    0.2912    0.0000 H       1  UNL1        0.0298
     30 H           4.2972   -1.1108    0.0000 H       1  UNL1        0.0388
     31 H           6.2311    0.0057    0.0000 H       1  UNL1        0.0741
     32 H           3.0477    1.5878    0.0000 H       1  UNL1        0.0258
     33 H           2.2883    2.0262    0.0000 H       1  UNL1        0.0258
     34 H           1.8499    1.2669    0.0000 H       1  UNL1        0.0258
     35 H           6.2204    0.6492    0.0000 H       1  UNL1        0.0258
     36 H           7.0674    0.8762    0.0000 H       1  UNL1        0.0258
     37 H           6.8404    1.7231    0.0000 H       1  UNL1        0.0258
     38 H           3.7331   -2.3340    0.0000 H       1  UNL1        0.0540
     39 H           4.5323   -3.0511    0.0000 H       1  UNL1        0.0540
@<TRIPOS>BOND
     1     1     6    1
     2     1     7    1
     3     2     5    1
     4     2     8    1
     5     3    14    1
     6     3    18    1
     7     4    18    2
     8     5     8    1
     9     5     9    1
    10     5    15    1
    11     6     7    1
    12     6    11    1
    13     6    16    1
    14     7    10    1
    15     7    20    1
    16     8    12    1
    17     8    21    1
    18     9    10    1
    19     9    22    1
    20     9    23    1
    21    10    24    1
    22    10    25    1
    23    11    14    1
    24    11    26    1
    25    11    27    1
    26    12    13    1
    27    12    28    1
    28    12    29    1
    29    13    14    1
    30    13    17    1
    31    13    30    1
    32    14    31    1
    33    15    32    1
    34    15    33    1
    35    15    34    1
    36    16    35    1
    37    16    36    1
    38    16    37    1
    39    17    18    1
    40    17    19    2
    41    19    38    1
    42    19    39    1
