@<TRIPOS>MOLECULE
IMPHY010228
 58 63 0 0 0
SMALL
GASTEIGER

@<TRIPOS>ATOM
      1 O           3.9271    2.3640    0.0000 O.3     1  UNL1       -0.3909
      2 O           4.5520    0.2569    0.0000 O.3     1  UNL1       -0.3869
      3 N           5.1764   -1.6469    0.0000 N.3     1  UNL1       -0.2983
      4 C           3.8831    0.3572    0.0000 C.3     1  UNL1       -0.0042
      5 C           5.6591    0.3640    0.0000 C.3     1  UNL1        0.0106
      6 C           4.7931    0.8640    0.0000 C.3     1  UNL1        0.0015
      7 C           5.6752   -0.6775    0.0000 C.3     1  UNL1       -0.0159
      8 C           4.6829   -0.2476    0.0000 C.3     1  UNL1        0.0201
      9 C           3.8751   -0.6844    0.0000 C.3     1  UNL1       -0.0267
     10 C           4.7771   -1.2053    0.0000 C.3     1  UNL1       -0.0442
     11 C           2.9396   -1.2342    0.0000 C.3     1  UNL1       -0.0159
     12 C           2.9562    0.9212    0.0000 C.3     1  UNL1       -0.0453
     13 C           4.7931    1.8640    0.0000 C.3     1  UNL1        0.0658
     14 C           6.5251    0.8640    0.0000 C.3     1  UNL1       -0.0434
     15 C           5.2591    0.9640    0.0000 C.3     1  UNL1        0.0826
     16 C           5.6591    2.3640    0.0000 C.3     1  UNL1        0.0086
     17 C           3.8851   -2.3777    0.0000 C.3     1  UNL1        0.0049
     18 C           2.0000   -0.6917    0.0000 C.3     1  UNL1       -0.0462
     19 C           6.5251    1.8640    0.0000 C.3     1  UNL1       -0.0435
     20 C           2.0084    0.3933    0.0000 C.3     1  UNL1       -0.0519
     21 C           5.2591    1.7640    0.0000 C.2     1  UNL1       -0.0425
     22 C           2.2941   -1.9979    0.0000 C.3     1  UNL1       -0.0581
     23 C           6.1129   -1.9976    0.0000 C.3     1  UNL1       -0.0036
     24 C           4.5520    2.4711    0.0000 C.2     1  UNL1       -0.0967
     25 C           6.2774   -2.9840    0.0000 C.3     1  UNL1       -0.0523
     26 H           4.0570    1.2890    0.0000 H       1  UNL1        0.0338
     27 H           6.4113   -1.1025    0.0000 H       1  UNL1        0.0322
     28 H           4.3886   -1.0451    0.0000 H       1  UNL1        0.0471
     29 H           3.8685   -1.5344    0.0000 H       1  UNL1        0.0312
     30 H           4.3798   -1.6812    0.0000 H       1  UNL1        0.0272
     31 H           5.1781   -1.6782    0.0000 H       1  UNL1        0.0272
     32 H           3.3645    1.3879    0.0000 H       1  UNL1        0.0271
     33 H           2.5663    1.4033    0.0000 H       1  UNL1        0.0271
     34 H           4.7931    2.4840    0.0000 H       1  UNL1        0.0602
     35 H           6.7372    0.2814    0.0000 H       1  UNL1        0.0272
     36 H           7.1357    0.9717    0.0000 H       1  UNL1        0.0272
     37 H           5.8525    1.1437    0.0000 H       1  UNL1        0.0646
     38 H           5.6591    3.2140    0.0000 H       1  UNL1        0.0371
     39 H           3.3850   -2.7441    0.0000 H       1  UNL1        0.0432
     40 H           4.2216   -2.8984    0.0000 H       1  UNL1        0.0432
     41 H           1.3900   -0.5809    0.0000 H       1  UNL1        0.0271
     42 H           1.7864   -1.2737    0.0000 H       1  UNL1        0.0271
     43 H           7.1357    1.7563    0.0000 H       1  UNL1        0.0272
     44 H           6.7372    2.4466    0.0000 H       1  UNL1        0.0272
     45 H           1.8038    0.9786    0.0000 H       1  UNL1        0.0266
     46 H           1.3967    0.2919    0.0000 H       1  UNL1        0.0266
     47 H           1.8206   -1.5976    0.0000 H       1  UNL1        0.0236
     48 H           1.8938   -2.4714    0.0000 H       1  UNL1        0.0236
     49 H           2.7676   -2.3981    0.0000 H       1  UNL1        0.0236
     50 H           6.7329   -2.0034    0.0000 H       1  UNL1        0.0424
     51 H           6.2262   -1.3881    0.0000 H       1  UNL1        0.0424
     52 H           3.9271    2.9840    0.0000 H       1  UNL1        0.2098
     53 H           5.1509    0.0964    0.0000 H       1  UNL1        0.2102
     54 H           4.7125    3.0700    0.0000 H       1  UNL1        0.0535
     55 H           3.9531    2.3106    0.0000 H       1  UNL1        0.0535
     56 H           5.6658   -3.0860    0.0000 H       1  UNL1        0.0242
     57 H           6.3794   -3.5956    0.0000 H       1  UNL1        0.0242
     58 H           6.8889   -2.8820    0.0000 H       1  UNL1        0.0242
@<TRIPOS>BOND
     1    13     1    1
     2     1    52    1
     3    15     2    1
     4     2    53    1
     5     3     8    1
     6     3    17    1
     7     3    23    1
     8     4     6    1
     9     4     8    1
    10     4     9    1
    11     4    12    1
    12     5     6    1
    13     5     7    1
    14     5    14    1
    15     5    15    1
    16     6    13    1
    17     6    26    1
    18     7     8    1
    19     7    10    1
    20     7    27    1
    21     8    28    1
    22     9    10    1
    23     9    11    1
    24     9    29    1
    25    10    30    1
    26    10    31    1
    27    11    17    1
    28    11    18    1
    29    11    22    1
    30    12    20    1
    31    12    32    1
    32    12    33    1
    33    13    16    1
    34    13    34    1
    35    14    19    1
    36    14    35    1
    37    14    36    1
    38    15    21    1
    39    15    37    1
    40    16    19    1
    41    16    21    1
    42    16    38    1
    43    17    39    1
    44    17    40    1
    45    18    20    1
    46    18    41    1
    47    18    42    1
    48    19    43    1
    49    19    44    1
    50    20    45    1
    51    20    46    1
    52    21    24    2
    53    22    47    1
    54    22    48    1
    55    22    49    1
    56    23    25    1
    57    23    50    1
    58    23    51    1
    59    24    54    1
    60    24    55    1
    61    25    56    1
    62    25    57    1
    63    25    58    1
