@<TRIPOS>MOLECULE
IMPHY012792
 53 57 0 0 0
SMALL
GASTEIGER

@<TRIPOS>ATOM
      1 O           6.3678    0.6672    0.0000 O.3     1  UNL1       -0.3748
      2 O           3.4842   -1.0204    0.0000 O.2     1  UNL1       -0.2721
      3 O           4.1565   -3.0895    0.0000 O.3     1  UNL1       -0.2756
      4 O           8.1161   -3.6022    0.0000 O.3     1  UNL1       -0.5067
      5 N           3.0886    0.8065    0.0000 N.3     1  UNL1       -0.2981
      6 N           4.7443   -2.2805    0.0000 N.am    1  UNL1       -0.1475
      7 C           4.7443    1.4490    0.0000 C.3     1  UNL1        0.0047
      8 C           5.2443   -0.7417    0.0000 C.3     1  UNL1        0.1035
      9 C           4.1208    0.6672    0.0000 C.3     1  UNL1        0.0172
     10 C           4.3788    2.4244    0.0000 C.3     1  UNL1       -0.0100
     11 C           6.1453   -0.3078    0.0000 C.3     1  UNL1        0.0773
     12 C           4.3434   -0.3078    0.0000 C.3     1  UNL1       -0.0164
     13 C           4.4733    0.5483    0.0000 C.3     1  UNL1       -0.0184
     14 C           5.7443    1.4490    0.0000 C.3     1  UNL1        0.0529
     15 C           3.3500    2.5875    0.0000 C.2     1  UNL1       -0.0562
     16 C           6.0533   -1.3294    0.0000 C.ar    1  UNL1       -0.0059
     17 C           2.7005    1.7732    0.0000 C.3     1  UNL1        0.0203
     18 C           4.4353   -1.3294    0.0000 C.2     1  UNL1        0.2559
     19 C           5.7443   -2.2805    0.0000 C.ar    1  UNL1        0.0721
     20 C           2.4742    0.0175    0.0000 C.3     1  UNL1       -0.0121
     21 C           2.9882    3.5198    0.0000 C.2     1  UNL1       -0.0864
     22 C           7.0688   -1.0972    0.0000 C.ar    1  UNL1       -0.0522
     23 C           6.4293   -3.0652    0.0000 C.ar    1  UNL1        0.0038
     24 C           7.7717   -1.8659    0.0000 C.ar    1  UNL1       -0.0198
     25 C           2.0000    3.6727    0.0000 C.3     1  UNL1       -0.0465
     26 C           7.4498   -2.8565    0.0000 C.ar    1  UNL1        0.1187
     27 C           4.5633   -4.0031    0.0000 C.3     1  UNL1        0.0629
     28 H           5.0133    0.8904    0.0000 H       1  UNL1        0.0344
     29 H           3.7026    0.2094    0.0000 H       1  UNL1        0.0466
     30 H           4.7709    2.9046    0.0000 H       1  UNL1        0.0351
     31 H           6.6300   -0.6943    0.0000 H       1  UNL1        0.0610
     32 H           3.7234   -0.3078    0.0000 H       1  UNL1        0.0294
     33 H           4.2054   -0.9122    0.0000 H       1  UNL1        0.0294
     34 H           3.8581    0.6251    0.0000 H       1  UNL1        0.0296
     35 H           4.2909   -0.0442    0.0000 H       1  UNL1        0.0296
     36 H           6.3029    1.7180    0.0000 H       1  UNL1        0.0563
     37 H           5.6064    2.0534    0.0000 H       1  UNL1        0.0563
     38 H           2.2891    2.2370    0.0000 H       1  UNL1        0.0473
     39 H           2.1732    1.4472    0.0000 H       1  UNL1        0.0473
     40 H           1.9850    0.3984    0.0000 H       1  UNL1        0.0391
     41 H           2.0932   -0.4717    0.0000 H       1  UNL1        0.0391
     42 H           2.9633   -0.3634    0.0000 H       1  UNL1        0.0391
     43 H           3.3767    4.0031    0.0000 H       1  UNL1        0.0569
     44 H           7.2535   -0.5054    0.0000 H       1  UNL1        0.0622
     45 H           6.2309   -3.6526    0.0000 H       1  UNL1        0.0674
     46 H           8.3776   -1.7346    0.0000 H       1  UNL1        0.0654
     47 H           2.0948    4.2854    0.0000 H       1  UNL1        0.0272
     48 H           1.3873    3.7674    0.0000 H       1  UNL1        0.0272
     49 H           1.9052    3.0600    0.0000 H       1  UNL1        0.0272
     50 H           3.9969   -4.2552    0.0000 H       1  UNL1        0.0547
     51 H           4.8154   -4.5695    0.0000 H       1  UNL1        0.0547
     52 H           5.1297   -3.7509    0.0000 H       1  UNL1        0.0547
     53 H           8.7230   -3.4757    0.0000 H       1  UNL1        0.2921
@<TRIPOS>BOND
     1     1    11    1
     2     1    14    1
     3     2    18    2
     4     3     6    1
     5     3    27    1
     6     4    26    1
     7     4    53    1
     8     5     9    1
     9     5    17    1
    10     5    20    1
    11     6    18   am
    12     6    19    1
    13     7     9    1
    14     7    10    1
    15     7    14    1
    16     7    28    1
    17     8    11    1
    18     8    12    1
    19     8    16    1
    20     8    18    1
    21     9    12    1
    22     9    29    1
    23    10    13    1
    24    10    15    1
    25    10    30    1
    26    11    13    1
    27    11    31    1
    28    12    32    1
    29    12    33    1
    30    13    34    1
    31    13    35    1
    32    14    36    1
    33    14    37    1
    34    15    17    1
    35    15    21    2
    36    16    19   ar
    37    16    22   ar
    38    17    38    1
    39    17    39    1
    40    19    23   ar
    41    20    40    1
    42    20    41    1
    43    20    42    1
    44    21    25    1
    45    21    43    1
    46    22    24   ar
    47    22    44    1
    48    23    26   ar
    49    23    45    1
    50    24    26   ar
    51    24    46    1
    52    25    47    1
    53    25    48    1
    54    25    49    1
    55    27    50    1
    56    27    51    1
    57    27    52    1
