@<TRIPOS>MOLECULE
IMPHY012536
 60 67 0 0 0
SMALL
GASTEIGER

@<TRIPOS>ATOM
      1 O           7.3684    1.7552    0.0000 O.3     1  UNL1       -0.4930
      2 O           8.9143   -1.7552    0.0000 O.2     1  UNL1       -0.2696
      3 O           4.3795    2.5000    0.0000 O.3     1  UNL1       -0.4792
      4 O           6.1115    2.5000    0.0000 O.2     1  UNL1       -0.2487
      5 O          11.9032   -2.5000    0.0000 O.3     1  UNL1       -0.4793
      6 O          10.1712   -2.5000    0.0000 O.2     1  UNL1       -0.2489
      7 N           6.1115    0.5000    0.0000 N.ar    1  UNL1       -0.2959
      8 N          10.1712   -0.5000    0.0000 N.am    1  UNL1       -0.2512
      9 N           5.0363   -1.9718    0.0000 N.ar    1  UNL1       -0.3528
     10 N          11.2464    1.9718    0.0000 N.2     1  UNL1       -0.2451
     11 C           5.2455    1.0000    0.0000 C.3     1  UNL1        0.1382
     12 C           6.1115   -0.5000    0.0000 C.ar    1  UNL1        0.0700
     13 C           4.3795    0.5000    0.0000 C.3     1  UNL1        0.0063
     14 C           4.3795   -0.5000    0.0000 C.ar    1  UNL1       -0.0105
     15 C           5.2455   -1.0000    0.0000 C.ar    1  UNL1        0.0675
     16 C          11.0372   -1.0000    0.0000 C.3     1  UNL1        0.1319
     17 C           7.6414    0.0000    0.0000 C.ar    1  UNL1        0.0488
     18 C          10.1712    0.5000    0.0000 C.2     1  UNL1        0.0638
     19 C           8.6413    0.0000    0.0000 C.2     1  UNL1        0.0513
     20 C          11.9032   -0.5000    0.0000 C.3     1  UNL1        0.0045
     21 C           7.0577    0.8047    0.0000 C.ar    1  UNL1        0.2021
     22 C           7.0577   -0.8047    0.0000 C.ar    1  UNL1       -0.0231
     23 C          11.9032    0.5000    0.0000 C.2     1  UNL1       -0.0087
     24 C           3.6425   -1.1671    0.0000 C.ar    1  UNL1        0.0036
     25 C          11.0372    1.0000    0.0000 C.2     1  UNL1        0.0898
     26 C           9.2250   -0.8047    0.0000 C.2     1  UNL1        0.2524
     27 C           9.2250    0.8047    0.0000 C.2     1  UNL1       -0.0253
     28 C           4.0476   -2.0749    0.0000 C.ar    1  UNL1        0.0472
     29 C          12.6402    1.1671    0.0000 C.ar    1  UNL1        0.0057
     30 C           5.2455    2.0000    0.0000 C.2     1  UNL1        0.3283
     31 C          12.2351    2.0749    0.0000 C.ar    1  UNL1        0.0720
     32 C          11.0372   -2.0000    0.0000 C.2     1  UNL1        0.3262
     33 C           2.6144   -1.0439    0.0000 C.ar    1  UNL1       -0.0523
     34 C           3.4527   -2.9224    0.0000 C.ar    1  UNL1       -0.0378
     35 C          13.6684    1.0439    0.0000 C.ar    1  UNL1       -0.0522
     36 C           2.0000   -1.8774    0.0000 C.ar    1  UNL1       -0.0611
     37 C           2.4220   -2.8230    0.0000 C.ar    1  UNL1       -0.0598
     38 C          12.8300    2.9224    0.0000 C.ar    1  UNL1       -0.0357
     39 C          14.2827    1.8774    0.0000 C.ar    1  UNL1       -0.0611
     40 C          13.8607    2.8230    0.0000 C.ar    1  UNL1       -0.0597
     41 H           5.7824    1.3100    0.0000 H       1  UNL1        0.0648
     42 H           4.1674    1.0826    0.0000 H       1  UNL1        0.0340
     43 H           3.7689    0.3923    0.0000 H       1  UNL1        0.0340
     44 H          10.5003   -1.3100    0.0000 H       1  UNL1        0.0624
     45 H          12.1153   -1.0826    0.0000 H       1  UNL1        0.0338
     46 H          12.5138   -0.3923    0.0000 H       1  UNL1        0.0338
     47 H           7.2504   -1.3940    0.0000 H       1  UNL1        0.0647
     48 H           9.0323    1.3941    0.0000 H       1  UNL1        0.0644
     49 H           5.4504   -2.4333    0.0000 H       1  UNL1        0.1660
     50 H           2.3683   -0.4748    0.0000 H       1  UNL1        0.0624
     51 H           3.7119   -3.4856    0.0000 H       1  UNL1        0.0638
     52 H           7.9751    1.8831    0.0000 H       1  UNL1        0.2937
     53 H          13.9145    0.4748    0.0000 H       1  UNL1        0.0624
     54 H           1.3836   -1.8108    0.0000 H       1  UNL1        0.0618
     55 H           2.0599   -3.3263    0.0000 H       1  UNL1        0.0618
     56 H          12.5708    3.4856    0.0000 H       1  UNL1        0.0639
     57 H          14.8991    1.8108    0.0000 H       1  UNL1        0.0618
     58 H           4.3795    3.1200    0.0000 H       1  UNL1        0.2951
     59 H          14.2228    3.3263    0.0000 H       1  UNL1        0.0618
     60 H          11.9032   -3.1200    0.0000 H       1  UNL1        0.2951
@<TRIPOS>BOND
     1     1    21    1
     2     1    52    1
     3     2    26    2
     4     3    30    1
     5     3    58    1
     6     4    30    2
     7     5    32    1
     8     5    60    1
     9     6    32    2
    10     7    11    1
    11     7    12   ar
    12     7    21   ar
    13     8    16    1
    14     8    18    1
    15     8    26   am
    16     9    15   ar
    17     9    28   ar
    18     9    49    1
    19    10    25    1
    20    10    31    2
    21    11    13    1
    22    11    30    1
    23    11    41    1
    24    12    15    1
    25    12    22   ar
    26    13    14    1
    27    13    42    1
    28    13    43    1
    29    14    15   ar
    30    14    24   ar
    31    16    20    1
    32    16    32    1
    33    16    44    1
    34    17    19    1
    35    17    21   ar
    36    17    22   ar
    37    18    25    2
    38    18    27    1
    39    19    26    1
    40    19    27    2
    41    20    23    1
    42    20    45    1
    43    20    46    1
    44    22    47    1
    45    23    25    1
    46    23    29    2
    47    24    28   ar
    48    24    33   ar
    49    27    48    1
    50    28    34   ar
    51    29    31   ar
    52    29    35   ar
    53    31    38   ar
    54    33    36   ar
    55    33    50    1
    56    34    37   ar
    57    34    51    1
    58    35    39   ar
    59    35    53    1
    60    36    37   ar
    61    36    54    1
    62    37    55    1
    63    38    40   ar
    64    38    56    1
    65    39    40   ar
    66    39    57    1
    67    40    59    1
