@<TRIPOS>MOLECULE
IMPHY016599
 15 15 0 0 0
SMALL
GASTEIGER

@<TRIPOS>ATOM
      1 C           2.8090    0.7694    0.0000 C.3     1  UNL1       -0.0531
      2 C           2.0000    0.1816    0.0000 C.3     1  UNL1       -0.0531
      3 C           3.6180    0.1816    0.0000 C.3     1  UNL1       -0.0531
      4 C           2.3090   -0.7694    0.0000 C.3     1  UNL1       -0.0531
      5 C           3.3090   -0.7694    0.0000 C.3     1  UNL1       -0.0531
      6 H           3.2239    1.2302    0.0000 H       1  UNL1        0.0265
      7 H           2.3942    1.2302    0.0000 H       1  UNL1        0.0265
      8 H           1.6900    0.7186    0.0000 H       1  UNL1        0.0265
      9 H           1.4336   -0.0705    0.0000 H       1  UNL1        0.0265
     10 H           4.1844   -0.0705    0.0000 H       1  UNL1        0.0265
     11 H           3.9280    0.7186    0.0000 H       1  UNL1        0.0265
     12 H           1.7026   -0.8983    0.0000 H       1  UNL1        0.0265
     13 H           2.3738   -1.3860    0.0000 H       1  UNL1        0.0265
     14 H           3.2442   -1.3860    0.0000 H       1  UNL1        0.0265
     15 H           3.9155   -0.8983    0.0000 H       1  UNL1        0.0265
@<TRIPOS>BOND
     1     1     2    1
     2     1     3    1
     3     1     6    1
     4     1     7    1
     5     2     4    1
     6     2     8    1
     7     2     9    1
     8     3     5    1
     9     3    10    1
    10     3    11    1
    11     4     5    1
    12     4    12    1
    13     4    13    1
    14     5    14    1
    15     5    15    1
