@<TRIPOS>MOLECULE
IMPHY000387
 104 109 0 0 0
SMALL
GASTEIGER

@<TRIPOS>ATOM
      1 O           8.8753    2.0234    0.0000 O.3     1  UNL1       -0.3558
      2 O           8.2991    0.1290    0.0000 O.3     1  UNL1       -0.4580
      3 O           6.3615    2.2994    0.0000 O.3     1  UNL1       -0.3820
      4 O           7.1218   -0.6514    0.0000 O.3     1  UNL1       -0.3873
      5 O           9.0876   -0.7474    0.0000 O.3     1  UNL1       -0.4584
      6 O           6.7547    2.7405    0.0000 O.3     1  UNL1       -0.3871
      7 O           5.7334   -0.9098    0.0000 O.3     1  UNL1       -0.4543
      8 O           4.6624    1.6188    0.0000 O.3     1  UNL1       -0.4513
      9 O           5.3206    0.7130    0.0000 O.3     1  UNL1       -0.4640
     10 O          11.1644   -0.5361    0.0000 O.3     1  UNL1       -0.4582
     11 O           7.5434   -1.4295    0.0000 O.2     1  UNL1       -0.2512
     12 O          10.2844    0.5047    0.0000 O.2     1  UNL1       -0.2512
     13 O           5.2616   -2.5947    0.0000 O.2     1  UNL1       -0.2505
     14 O           5.2740    3.2393    0.0000 O.2     1  UNL1       -0.2449
     15 O           4.4784   -0.8005    0.0000 O.2     1  UNL1       -0.2512
     16 O          11.8625   -2.1405    0.0000 O.2     1  UNL1       -0.2449
     17 O           0.7581    4.0181    0.0000 O.2     1  UNL1       -0.2677
     18 N           8.4840   -2.7326    0.0000 N.ar    1  UNL1       -0.2588
     19 N           1.8556    2.6782    0.0000 N.ar    1  UNL1       -0.3175
     20 C           7.6504    1.9391    0.0000 C.3     1  UNL1        0.1528
     21 C           7.1660    1.0686    0.0000 C.3     1  UNL1        0.0987
     22 C           9.2111    0.9688    0.0000 C.3     1  UNL1        0.0704
     23 C           8.2271    1.1264    0.0000 C.3     1  UNL1        0.1445
     24 C           6.5870    1.3252    0.0000 C.3     1  UNL1        0.1366
     25 C           7.6498    0.1978    0.0000 C.3     1  UNL1        0.1066
     26 C          10.0127    1.5609    0.0000 C.3     1  UNL1        0.1114
     27 C           8.6448    0.1493    0.0000 C.3     1  UNL1        0.1386
     28 C           6.4596    1.7851    0.0000 C.3     1  UNL1        0.1098
     29 C           5.9016    0.3065    0.0000 C.3     1  UNL1        0.1732
     30 C           5.5979    1.2657    0.0000 C.3     1  UNL1        0.1693
     31 C           6.3080    0.5550    0.0000 C.3     1  UNL1        0.1059
     32 C           5.6958    1.7787    0.0000 C.3     1  UNL1       -0.0295
     33 C          10.8313    0.6457    0.0000 C.3     1  UNL1        0.1219
     34 C          10.5886    2.3784    0.0000 C.3     1  UNL1       -0.0321
     35 C           7.4714   -0.4321    0.0000 C.2     1  UNL1        0.3043
     36 C          10.0475   -0.4669    0.0000 C.2     1  UNL1        0.3043
     37 C           6.1168   -2.0763    0.0000 C.2     1  UNL1        0.3110
     38 C           4.5004    2.6056    0.0000 C.2     1  UNL1        0.3411
     39 C           4.4625    0.1994    0.0000 C.2     1  UNL1        0.3040
     40 C           6.9736   -2.9557    0.0000 C.3     1  UNL1        0.0616
     41 C           6.5716    0.0042    0.0000 C.3     1  UNL1        0.0332
     42 C          10.9444   -1.7441    0.0000 C.2     1  UNL1        0.3410
     43 C          10.8787   -1.2615    0.0000 C.3     1  UNL1        0.0332
     44 C           8.1298   -3.3692    0.0000 C.3     1  UNL1        0.0119
     45 C           3.5648    2.9587    0.0000 C.ar    1  UNL1        0.0753
     46 C           3.5887    0.6856    0.0000 C.3     1  UNL1        0.0332
     47 C          10.2160   -2.7326    0.0000 C.ar    1  UNL1        0.0805
     48 C           6.2339   -3.6286    0.0000 C.3     1  UNL1       -0.0517
     49 C           9.3500   -3.2326    0.0000 C.ar    1  UNL1        0.0588
     50 C           7.7609   -4.2986    0.0000 C.3     1  UNL1       -0.0562
     51 C           2.7912    2.3250    0.0000 C.ar    1  UNL1        0.0216
     52 C           3.4028    3.9455    0.0000 C.ar    1  UNL1       -0.0412
     53 C          10.2160   -1.7326    0.0000 C.ar    1  UNL1       -0.0446
     54 C           2.4672    4.2986    0.0000 C.ar    1  UNL1        0.0038
     55 C           9.3500   -1.2326    0.0000 C.ar    1  UNL1       -0.0428
     56 C           8.4840   -1.7326    0.0000 C.ar    1  UNL1        0.0279
     57 C           1.6936    3.6650    0.0000 C.ar    1  UNL1        0.2511
     58 C           1.0820    2.0445    0.0000 C.3     1  UNL1        0.0147
     59 H           9.8215    0.3773    0.0000 H       1  UNL1        0.0404
     60 H           7.7020    0.7966    0.0000 H       1  UNL1        0.0769
     61 H           7.9377   -0.3513    0.0000 H       1  UNL1        0.0639
     62 H           9.2632    0.1041    0.0000 H       1  UNL1        0.0765
     63 H           5.9713    2.1671    0.0000 H       1  UNL1        0.0640
     64 H           5.2040   -0.1792    0.0000 H       1  UNL1        0.0803
     65 H           5.1478    0.8394    0.0000 H       1  UNL1        0.0799
     66 H           6.7656    0.1367    0.0000 H       1  UNL1        0.0706
     67 H           6.0385   -0.0034    0.0000 H       1  UNL1        0.0706
     68 H           5.4146    1.2261    0.0000 H       1  UNL1        0.0259
     69 H           5.1432    2.0598    0.0000 H       1  UNL1        0.0259
     70 H           5.9769    2.3313    0.0000 H       1  UNL1        0.0259
     71 H          11.1116    1.1987    0.0000 H       1  UNL1        0.0727
     72 H          10.2878    0.3472    0.0000 H       1  UNL1        0.0727
     73 H          10.0817    2.7355    0.0000 H       1  UNL1        0.0259
     74 H          10.9457    2.8853    0.0000 H       1  UNL1        0.0259
     75 H          11.0955    2.0214    0.0000 H       1  UNL1        0.0259
     76 H           5.7685    2.4804    0.0000 H       1  UNL1        0.2104
     77 H           6.5022   -0.6312    0.0000 H       1  UNL1        0.2100
     78 H           7.3592    2.8783    0.0000 H       1  UNL1        0.2100
     79 H           6.9984   -3.5752    0.0000 H       1  UNL1        0.0417
     80 H           6.3011   -0.5537    0.0000 H       1  UNL1        0.0342
     81 H           6.0137    0.2747    0.0000 H       1  UNL1        0.0342
     82 H           6.8421    0.5621    0.0000 H       1  UNL1        0.0342
     83 H          11.3071   -0.8133    0.0000 H       1  UNL1        0.0342
     84 H          11.3269   -1.6898    0.0000 H       1  UNL1        0.0342
     85 H          10.4503   -1.7097    0.0000 H       1  UNL1        0.0342
     86 H           8.5144   -3.8554    0.0000 H       1  UNL1        0.0369
     87 H           3.2872    0.1439    0.0000 H       1  UNL1        0.0342
     88 H           3.0469    0.9871    0.0000 H       1  UNL1        0.0342
     89 H           3.8902    1.2274    0.0000 H       1  UNL1        0.0342
     90 H           6.6511   -4.0872    0.0000 H       1  UNL1        0.0238
     91 H           5.7752   -4.0457    0.0000 H       1  UNL1        0.0238
     92 H           5.8167   -3.1699    0.0000 H       1  UNL1        0.0238
     93 H           8.3372   -4.5273    0.0000 H       1  UNL1        0.0236
     94 H           7.5322   -4.8749    0.0000 H       1  UNL1        0.0236
     95 H           7.1846   -4.0699    0.0000 H       1  UNL1        0.0236
     96 H           2.8916    1.7132    0.0000 H       1  UNL1        0.0818
     97 H           3.8825    4.3384    0.0000 H       1  UNL1        0.0628
     98 H          10.7530   -1.4226    0.0000 H       1  UNL1        0.0627
     99 H           2.3668    4.9104    0.0000 H       1  UNL1        0.0672
    100 H           9.3500   -0.6126    0.0000 H       1  UNL1        0.0633
    101 H           7.9470   -1.4226    0.0000 H       1  UNL1        0.0829
    102 H           1.4749    1.5649    0.0000 H       1  UNL1        0.0457
    103 H           0.6024    1.6516    0.0000 H       1  UNL1        0.0457
    104 H           0.6892    2.5241    0.0000 H       1  UNL1        0.0457
@<TRIPOS>BOND
     1    20     1    1
     2     1    26    1
     3    23     2    1
     4     2    35    1
     5    24     3    1
     6     3    76    1
     7    25     4    1
     8     4    77    1
     9    27     5    1
    10     5    36    1
    11    28     6    1
    12     6    78    1
    13     7    29    1
    14     7    37    1
    15    30     8    1
    16     8    38    1
    17     9    31    1
    18     9    39    1
    19    10    33    1
    20    10    42    1
    21    11    35    2
    22    12    36    2
    23    13    37    2
    24    14    38    2
    25    15    39    2
    26    16    42    2
    27    17    57    2
    28    18    49   ar
    29    18    56   ar
    30    19    51   ar
    31    19    57   ar
    32    19    58    1
    33    20    21    1
    34    20    23    1
    35    20    24    1
    36    21    25    1
    37    21    28    1
    38    21    31    1
    39    22    23    1
    40    22    26    1
    41    22    27    1
    42    22    59    1
    43    23    60    1
    44    24    29    1
    45    24    32    1
    46    25    27    1
    47    25    61    1
    48    26    33    1
    49    26    34    1
    50    27    62    1
    51    28    30    1
    52    28    63    1
    53    29    30    1
    54    29    64    1
    55    30    65    1
    56    31    66    1
    57    31    67    1
    58    32    68    1
    59    32    69    1
    60    32    70    1
    61    33    71    1
    62    33    72    1
    63    34    73    1
    64    34    74    1
    65    34    75    1
    66    35    41    1
    67    36    43    1
    68    37    40    1
    69    38    45    1
    70    39    46    1
    71    40    44    1
    72    40    48    1
    73    40    79    1
    74    41    80    1
    75    41    81    1
    76    41    82    1
    77    42    47    1
    78    43    83    1
    79    43    84    1
    80    43    85    1
    81    44    49    1
    82    44    50    1
    83    44    86    1
    84    45    51   ar
    85    45    52   ar
    86    46    87    1
    87    46    88    1
    88    46    89    1
    89    47    49   ar
    90    47    53   ar
    91    48    90    1
    92    48    91    1
    93    48    92    1
    94    50    93    1
    95    50    94    1
    96    50    95    1
    97    51    96    1
    98    52    54   ar
    99    52    97    1
   100    53    55   ar
   101    53    98    1
   102    54    57   ar
   103    54    99    1
   104    55    56   ar
   105    55   100    1
   106    56   101    1
   107    58   102    1
   108    58   103    1
   109    58   104    1
