@<TRIPOS>MOLECULE
IMPHY006587
 42 47 0 0 0
SMALL
GASTEIGER

@<TRIPOS>ATOM
      1 O           6.7059    2.5612    0.0000 O.3     1  UNL1       -0.4563
      2 O           2.9562   -2.2569    0.0000 O.3     1  UNL1       -0.4489
      3 O           4.4081   -3.0952    0.0000 O.3     1  UNL1       -0.4524
      4 O           2.8718   -0.0105    0.0000 O.3     1  UNL1       -0.4907
      5 O           9.9183   -0.2089    0.0000 O.3     1  UNL1       -0.4526
      6 O           9.9183   -1.8184    0.0000 O.3     1  UNL1       -0.4526
      7 O           5.0493    3.2025    0.0000 O.2     1  UNL1       -0.2449
      8 C           6.3740   -0.0136    0.0000 C.ar    1  UNL1       -0.0027
      9 C           6.3740    0.9864    0.0000 C.ar    1  UNL1        0.0120
     10 C           5.5080   -0.5136    0.0000 C.ar    1  UNL1       -0.0026
     11 C           4.6419   -0.0136    0.0000 C.ar    1  UNL1        0.0291
     12 C           5.5080    1.4864    0.0000 C.ar    1  UNL1        0.0667
     13 C           4.6419    0.9864    0.0000 C.ar    1  UNL1       -0.0360
     14 C           7.2400   -0.5136    0.0000 C.ar    1  UNL1       -0.0132
     15 C           7.1110    1.6535    0.0000 C.3     1  UNL1        0.1192
     16 C           3.7319   -0.5205    0.0000 C.ar    1  UNL1        0.1730
     17 C           5.5240   -1.5551    0.0000 C.ar    1  UNL1       -0.0076
     18 C           3.7239   -1.5621    0.0000 C.ar    1  UNL1        0.2081
     19 C           4.6260   -2.0829    0.0000 C.ar    1  UNL1        0.1705
     20 C           5.7172    2.4582    0.0000 C.2     1  UNL1        0.3399
     21 C           8.1060   -0.0136    0.0000 C.ar    1  UNL1       -0.0084
     22 C           7.2400   -1.5136    0.0000 C.ar    1  UNL1       -0.0503
     23 C           8.9721   -0.5136    0.0000 C.ar    1  UNL1        0.1668
     24 C           8.9721   -1.5136    0.0000 C.ar    1  UNL1        0.1663
     25 C           3.3782   -3.2025    0.0000 C.3     1  UNL1        0.2334
     26 C           8.1060   -2.0136    0.0000 C.ar    1  UNL1       -0.0156
     27 C          10.5019   -1.0136    0.0000 C.3     1  UNL1        0.2332
     28 C           2.0000   -0.5004    0.0000 C.3     1  UNL1        0.0790
     29 H           4.1050    1.2964    0.0000 H       1  UNL1        0.0633
     30 H           7.4764    1.1526    0.0000 H       1  UNL1        0.0749
     31 H           7.6475    1.9642    0.0000 H       1  UNL1        0.0749
     32 H           6.0645   -1.8589    0.0000 H       1  UNL1        0.0662
     33 H           8.1060    0.6064    0.0000 H       1  UNL1        0.0661
     34 H           6.7031   -1.8236    0.0000 H       1  UNL1        0.0625
     35 H           2.7886   -3.3943    0.0000 H       1  UNL1        0.1166
     36 H           3.5069   -3.8090    0.0000 H       1  UNL1        0.1166
     37 H           8.1060   -2.6336    0.0000 H       1  UNL1        0.0655
     38 H          10.9628   -1.4284    0.0000 H       1  UNL1        0.1166
     39 H          10.9628   -0.5989    0.0000 H       1  UNL1        0.1166
     40 H           1.6962    0.0400    0.0000 H       1  UNL1        0.0660
     41 H           1.4595   -0.8042    0.0000 H       1  UNL1        0.0660
     42 H           2.3038   -1.0409    0.0000 H       1  UNL1        0.0660
@<TRIPOS>BOND
     1     1    15    1
     2     1    20    1
     3     2    18    1
     4     2    25    1
     5     3    19    1
     6     3    25    1
     7     4    16    1
     8     4    28    1
     9     5    23    1
    10     5    27    1
    11     6    24    1
    12     6    27    1
    13     7    20    2
    14     8     9   ar
    15     8    10   ar
    16     8    14    1
    17     9    12   ar
    18     9    15    1
    19    10    11   ar
    20    10    17   ar
    21    11    13   ar
    22    11    16   ar
    23    12    13   ar
    24    12    20    1
    25    13    29    1
    26    14    21   ar
    27    14    22   ar
    28    15    30    1
    29    15    31    1
    30    16    18   ar
    31    17    19   ar
    32    17    32    1
    33    18    19   ar
    34    21    23   ar
    35    21    33    1
    36    22    26   ar
    37    22    34    1
    38    23    24   ar
    39    24    26   ar
    40    25    35    1
    41    25    36    1
    42    26    37    1
    43    27    38    1
    44    27    39    1
    45    28    40    1
    46    28    41    1
    47    28    42    1
