@<TRIPOS>MOLECULE
IMPHY015402
 42 44 0 0 0
SMALL
GASTEIGER

@<TRIPOS>ATOM
      1 O           6.9881    1.1647    0.0000 O.3     1  UNL1       -0.3886
      2 C           5.0828   -0.8676    0.0000 C.3     1  UNL1       -0.0235
      3 C           4.1818   -0.4337    0.0000 C.3     1  UNL1       -0.0315
      4 C           3.9593    0.5412    0.0000 C.3     1  UNL1       -0.0324
      5 C           5.9838   -0.4337    0.0000 C.3     1  UNL1       -0.0067
      6 C           2.9754    0.3209    0.0000 C.3     1  UNL1       -0.0315
      7 C           3.1998   -0.6621    0.0000 C.3     1  UNL1       -0.0440
      8 C           5.5165   -1.7778    0.0000 C.3     1  UNL1       -0.0467
      9 C           6.4250   -1.3403    0.0000 C.3     1  UNL1       -0.0466
     10 C           6.2063    0.5412    0.0000 C.3     1  UNL1        0.0666
     11 C           4.5828    1.3231    0.0000 C.3     1  UNL1       -0.0469
     12 C           5.5828    1.3231    0.0000 C.3     1  UNL1       -0.0237
     13 C           4.1818   -1.3015    0.0000 C.3     1  UNL1       -0.0590
     14 C           2.0000    0.1004    0.0000 C.3     1  UNL1       -0.0595
     15 C           2.7549    1.2963    0.0000 C.3     1  UNL1       -0.0595
     16 C           7.1812    0.3187    0.0000 C.3     1  UNL1       -0.0358
     17 H           4.8464    0.0963    0.0000 H       1  UNL1        0.0309
     18 H           3.5086    1.2619    0.0000 H       1  UNL1        0.0309
     19 H           6.8282   -0.3368    0.0000 H       1  UNL1        0.0334
     20 H           2.5955   -0.8009    0.0000 H       1  UNL1        0.0273
     21 H           3.3394   -1.2662    0.0000 H       1  UNL1        0.0273
     22 H           4.9572   -2.0453    0.0000 H       1  UNL1        0.0271
     23 H           5.7848   -2.3368    0.0000 H       1  UNL1        0.0271
     24 H           6.6948   -1.8986    0.0000 H       1  UNL1        0.0269
     25 H           6.9828   -1.0698    0.0000 H       1  UNL1        0.0269
     26 H           4.7208    1.9275    0.0000 H       1  UNL1        0.0269
     27 H           4.0242    1.5921    0.0000 H       1  UNL1        0.0269
     28 H           6.1414    1.5921    0.0000 H       1  UNL1        0.0293
     29 H           5.4448    1.9275    0.0000 H       1  UNL1        0.0293
     30 H           3.9128   -0.7429    0.0000 H       1  UNL1        0.0235
     31 H           3.6232   -1.5705    0.0000 H       1  UNL1        0.0235
     32 H           4.4508   -1.8601    0.0000 H       1  UNL1        0.0235
     33 H           1.8633    0.7051    0.0000 H       1  UNL1        0.0235
     34 H           1.3953   -0.0363    0.0000 H       1  UNL1        0.0235
     35 H           2.1367   -0.5043    0.0000 H       1  UNL1        0.0235
     36 H           3.3596    1.4330    0.0000 H       1  UNL1        0.0235
     37 H           2.6182    1.9010    0.0000 H       1  UNL1        0.0235
     38 H           2.1501    1.1596    0.0000 H       1  UNL1        0.0235
     39 H           7.0432   -0.2857    0.0000 H       1  UNL1        0.0257
     40 H           7.7857    0.1808    0.0000 H       1  UNL1        0.0257
     41 H           7.3192    0.9232    0.0000 H       1  UNL1        0.0257
     42 H           6.8957    1.7778    0.0000 H       1  UNL1        0.2102
@<TRIPOS>BOND
     1    10     1    1
     2     1    42    1
     3     2     3    1
     4     2     5    1
     5     2     8    1
     6     2    13    1
     7     3     4    1
     8     3     7    1
     9     3    17    1
    10     4     6    1
    11     4    11    1
    12     4    18    1
    13     5     9    1
    14     5    10    1
    15     5    19    1
    16     6     7    1
    17     6    14    1
    18     6    15    1
    19     7    20    1
    20     7    21    1
    21     8     9    1
    22     8    22    1
    23     8    23    1
    24     9    24    1
    25     9    25    1
    26    10    12    1
    27    10    16    1
    28    11    12    1
    29    11    26    1
    30    11    27    1
    31    12    28    1
    32    12    29    1
    33    13    30    1
    34    13    31    1
    35    13    32    1
    36    14    33    1
    37    14    34    1
    38    14    35    1
    39    15    36    1
    40    15    37    1
    41    15    38    1
    42    16    39    1
    43    16    40    1
    44    16    41    1
