@<TRIPOS>MOLECULE
IMPHY007373
 40 41 0 0 0
SMALL
GASTEIGER

@<TRIPOS>ATOM
      1 O           3.8660    0.0670    0.0000 O.3     1  UNL1       -0.3644
      2 C           2.8660    0.0670    0.0000 C.3     1  UNL1        0.0966
      3 C           3.3660    0.9330    0.0000 C.3     1  UNL1        0.0918
      4 C           2.8660   -0.9330    0.0000 C.3     1  UNL1       -0.0060
      5 C           2.0000   -1.4330    0.0000 C.3     1  UNL1       -0.0436
      6 C           2.0000    0.5670    0.0000 C.3     1  UNL1       -0.0331
      7 C           3.7320   -1.4330    0.0000 C.3     1  UNL1       -0.0290
      8 C           3.3660    1.9330    0.0000 C.3     1  UNL1       -0.0054
      9 C           2.0000   -2.4330    0.0000 C.3     1  UNL1       -0.0317
     10 C           3.7320   -2.4330    0.0000 C.2     1  UNL1       -0.0847
     11 C           2.8660   -2.9330    0.0000 C.2     1  UNL1       -0.0765
     12 C           4.2320    2.4330    0.0000 C.2     1  UNL1       -0.0828
     13 C           2.8660   -3.9330    0.0000 C.3     1  UNL1       -0.0438
     14 C           4.2320    3.4330    0.0000 C.2     1  UNL1       -0.0795
     15 C           5.0981    3.9330    0.0000 C.3     1  UNL1       -0.0440
     16 C           3.3660    3.9330    0.0000 C.3     1  UNL1       -0.0440
     17 H           3.9649    1.0935    0.0000 H       1  UNL1        0.0628
     18 H           3.4030   -0.6230    0.0000 H       1  UNL1        0.0332
     19 H           1.7880   -0.8504    0.0000 H       1  UNL1        0.0272
     20 H           1.3894   -1.5407    0.0000 H       1  UNL1        0.0272
     21 H           2.3100    1.1039    0.0000 H       1  UNL1        0.0258
     22 H           1.4631    0.8770    0.0000 H       1  UNL1        0.0258
     23 H           1.6900    0.0301    0.0000 H       1  UNL1        0.0258
     24 H           4.3426   -1.5407    0.0000 H       1  UNL1        0.0311
     25 H           3.9441   -0.8504    0.0000 H       1  UNL1        0.0311
     26 H           3.1540    2.5156    0.0000 H       1  UNL1        0.0333
     27 H           2.7554    1.8254    0.0000 H       1  UNL1        0.0333
     28 H           1.3894   -2.3253    0.0000 H       1  UNL1        0.0310
     29 H           1.7880   -3.0156    0.0000 H       1  UNL1        0.0310
     30 H           4.2690   -2.7430    0.0000 H       1  UNL1        0.0572
     31 H           4.7690    2.1230    0.0000 H       1  UNL1        0.0572
     32 H           2.2460   -3.9330    0.0000 H       1  UNL1        0.0274
     33 H           2.8660   -4.5530    0.0000 H       1  UNL1        0.0274
     34 H           3.4860   -3.9330    0.0000 H       1  UNL1        0.0274
     35 H           5.4081    3.3961    0.0000 H       1  UNL1        0.0274
     36 H           5.6350    4.2430    0.0000 H       1  UNL1        0.0274
     37 H           3.6760    4.4700    0.0000 H       1  UNL1        0.0274
     38 H           2.8291    4.2430    0.0000 H       1  UNL1        0.0274
     39 H           3.0560    3.3961    0.0000 H       1  UNL1        0.0274
     40 H           4.7881    4.4700    0.0000 H       1  UNL1        0.0274
@<TRIPOS>BOND
     1     1     2    1
     2     1     3    1
     3     2     3    1
     4     2     4    1
     5     2     6    1
     6     3     8    1
     7     3    17    1
     8     4     5    1
     9     4     7    1
    10     4    18    1
    11     5     9    1
    12     5    19    1
    13     5    20    1
    14     6    21    1
    15     6    22    1
    16     6    23    1
    17     7    10    1
    18     7    24    1
    19     7    25    1
    20     8    12    1
    21     8    26    1
    22     8    27    1
    23     9    11    1
    24     9    28    1
    25     9    29    1
    26    10    11    2
    27    10    30    1
    28    11    13    1
    29    12    14    2
    30    12    31    1
    31    13    32    1
    32    13    33    1
    33    13    34    1
    34    14    15    1
    35    14    16    1
    36    15    35    1
    37    15    36    1
    38    15    40    1
    39    16    37    1
    40    16    38    1
    41    16    39    1
