@<TRIPOS>MOLECULE
IMPHY013064
 143 150 0 0 0
SMALL
GASTEIGER

@<TRIPOS>ATOM
      1 O           6.8671   -3.5496    0.0000 O.3     1  UNL1       -0.3449
      2 O           8.6209    5.7298    0.0000 O.3     1  UNL1       -0.4318
      3 O           9.5042    4.2400    0.0000 O.2     1  UNL1       -0.2501
      4 O           5.1350   -3.5496    0.0000 O.3     1  UNL1       -0.3315
      5 O           6.8671   -5.5496    0.0000 O.3     1  UNL1       -0.3378
      6 O           9.4695    7.2398    0.0000 O.3     1  UNL1       -0.3312
      7 O           5.1350   -6.5496    0.0000 O.3     1  UNL1       -0.3864
      8 O           3.4030   -5.5496    0.0000 O.3     1  UNL1       -0.3860
      9 O          10.3644    4.7499    0.0000 O.3     1  UNL1       -0.3829
     10 O          12.0847    5.7699    0.0000 O.3     1  UNL1       -0.3864
     11 O           6.0010   -7.0496    0.0000 O.3     1  UNL1       -0.3405
     12 O          12.0616    7.7698    0.0000 O.3     1  UNL1       -0.3865
     13 O           2.5369   -4.0496    0.0000 O.3     1  UNL1       -0.4788
     14 O           3.4030   -2.5496    0.0000 O.2     1  UNL1       -0.2480
     15 O           8.5991   -6.5496    0.0000 O.3     1  UNL1       -0.3841
     16 O           9.4464    9.2396    0.0000 O.3     1  UNL1       -0.3924
     17 O           8.5991   -8.5496    0.0000 O.3     1  UNL1       -0.3864
     18 O           6.8671   -9.5496    0.0000 O.3     1  UNL1       -0.3865
     19 O           5.1350   -9.5496    0.0000 O.3     1  UNL1       -0.3924
     20 C           7.7681    1.1506    0.0000 C.3     1  UNL1       -0.0194
     21 C           6.9040    0.6473    0.0000 C.3     1  UNL1       -0.0257
     22 C           6.8920   -0.3943    0.0000 C.3     1  UNL1       -0.0250
     23 C           7.7643    2.1506    0.0000 C.3     1  UNL1       -0.0051
     24 C           7.7920   -0.9185    0.0000 C.3     1  UNL1       -0.0278
     25 C           8.6801    0.6473    0.0000 C.3     1  UNL1       -0.0463
     26 C           7.8046   -2.0035    0.0000 C.3     1  UNL1       -0.0052
     27 C           8.6921   -0.3943    0.0000 C.3     1  UNL1       -0.0486
     28 C           6.8963    2.6473    0.0000 C.2     1  UNL1       -0.0629
     29 C           6.8762    3.6887    0.0000 C.3     1  UNL1       -0.0031
     30 C           6.0361    1.1440    0.0000 C.3     1  UNL1       -0.0306
     31 C           5.9421   -0.9185    0.0000 C.3     1  UNL1       -0.0447
     32 C           8.6723    2.6610    0.0000 C.3     1  UNL1       -0.0424
     33 C           7.7722    4.2199    0.0000 C.3     1  UNL1        0.0744
     34 C           8.7522    1.3281    0.0000 C.3     1  UNL1       -0.0585
     35 C           6.8671   -2.5496    0.0000 C.3     1  UNL1        0.0672
     36 C           8.6763    3.7026    0.0000 C.3     1  UNL1       -0.0359
     37 C           6.0279    0.1091    0.0000 C.3     1  UNL1       -0.0590
     38 C           6.0322    2.1439    0.0000 C.2     1  UNL1       -0.0836
     39 C           5.9295   -2.0035    0.0000 C.3     1  UNL1       -0.0255
     40 C           8.7497    1.9808    0.0000 C.3     1  UNL1       -0.0553
     41 C           5.9223    4.2057    0.0000 C.3     1  UNL1       -0.0403
     42 C           7.7764    5.3049    0.0000 C.3     1  UNL1       -0.0362
     43 C           5.9014    5.2905    0.0000 C.3     1  UNL1       -0.0343
     44 C           8.8046   -1.9958    0.0000 C.3     1  UNL1       -0.0572
     45 C           8.3113   -2.8656    0.0000 C.3     1  UNL1       -0.0572
     46 C           6.8347    5.8438    0.0000 C.3     1  UNL1       -0.0468
     47 C           8.6324    4.7299    0.0000 C.2     1  UNL1        0.3161
     48 C           5.3881    6.1487    0.0000 C.3     1  UNL1       -0.0598
     49 C           4.9015    5.2750    0.0000 C.3     1  UNL1       -0.0598
     50 C           6.0010   -4.0496    0.0000 C.3     1  UNL1        0.1892
     51 C           6.0010   -5.0496    0.0000 C.3     1  UNL1        0.1407
     52 C           9.4810    6.2398    0.0000 C.3     1  UNL1        0.2337
     53 C           5.1350   -5.5496    0.0000 C.3     1  UNL1        0.1149
     54 C           4.2690   -4.0496    0.0000 C.3     1  UNL1        0.1859
     55 C           4.2690   -5.0496    0.0000 C.3     1  UNL1        0.1202
     56 C          10.3528    5.7499    0.0000 C.3     1  UNL1        0.1455
     57 C          11.2130    6.2599    0.0000 C.3     1  UNL1        0.1152
     58 C          10.3297    7.7497    0.0000 C.3     1  UNL1        0.1140
     59 C          11.2014    7.2598    0.0000 C.3     1  UNL1        0.1120
     60 C           6.8671   -6.5496    0.0000 C.3     1  UNL1        0.1885
     61 C           3.4030   -3.5496    0.0000 C.2     1  UNL1        0.3367
     62 C           7.7331   -7.0496    0.0000 C.3     1  UNL1        0.1341
     63 C          10.3181    8.7497    0.0000 C.3     1  UNL1        0.0731
     64 C           7.7331   -8.0496    0.0000 C.3     1  UNL1        0.1141
     65 C           6.0010   -8.0496    0.0000 C.3     1  UNL1        0.1130
     66 C           6.8671   -8.5496    0.0000 C.3     1  UNL1        0.1119
     67 C           5.1350   -8.5496    0.0000 C.3     1  UNL1        0.0730
     68 H           7.6385    0.2195    0.0000 H       1  UNL1        0.0315
     69 H           8.5314   -1.3379    0.0000 H       1  UNL1        0.0312
     70 H           9.2921    0.5483    0.0000 H       1  UNL1        0.0271
     71 H           8.8824    1.2334    0.0000 H       1  UNL1        0.0271
     72 H           8.9079   -0.9755    0.0000 H       1  UNL1        0.0268
     73 H           9.3017   -0.2811    0.0000 H       1  UNL1        0.0268
     74 H           6.1502    3.2468    0.0000 H       1  UNL1        0.0357
     75 H           5.4251    1.2493    0.0000 H       1  UNL1        0.0310
     76 H           5.8263    0.5605    0.0000 H       1  UNL1        0.0310
     77 H           5.7398   -0.3325    0.0000 H       1  UNL1        0.0271
     78 H           5.3300   -1.0176    0.0000 H       1  UNL1        0.0271
     79 H           8.8791    2.0765    0.0000 H       1  UNL1        0.0274
     80 H           9.2836    2.7647    0.0000 H       1  UNL1        0.0274
     81 H           8.8623    0.7179    0.0000 H       1  UNL1        0.0235
     82 H           9.3624    1.4381    0.0000 H       1  UNL1        0.0235
     83 H           8.6422    1.9382    0.0000 H       1  UNL1        0.0235
     84 H           7.4046   -2.8586    0.0000 H       1  UNL1        0.0602
     85 H           9.2868    3.5942    0.0000 H       1  UNL1        0.0276
     86 H           8.8876    4.2855    0.0000 H       1  UNL1        0.0276
     87 H           6.3400    0.6448    0.0000 H       1  UNL1        0.0235
     88 H           5.4922    0.4211    0.0000 H       1  UNL1        0.0235
     89 H           5.7158   -0.4267    0.0000 H       1  UNL1        0.0235
     90 H           5.4941    2.4519    0.0000 H       1  UNL1        0.0572
     91 H           5.3199   -1.8903    0.0000 H       1  UNL1        0.0290
     92 H           5.7137   -2.5847    0.0000 H       1  UNL1        0.0290
     93 H           8.6444    1.3698    0.0000 H       1  UNL1        0.0238
     94 H           9.3607    1.8755    0.0000 H       1  UNL1        0.0238
     95 H           8.8550    2.5918    0.0000 H       1  UNL1        0.0238
     96 H           5.3095    4.3000    0.0000 H       1  UNL1        0.0276
     97 H           5.7246    3.6181    0.0000 H       1  UNL1        0.0276
     98 H           8.3869    5.1965    0.0000 H       1  UNL1        0.0276
     99 H           7.9877    5.8878    0.0000 H       1  UNL1        0.0276
    100 H           8.8094   -2.6157    0.0000 H       1  UNL1        0.0236
    101 H           9.4246   -1.9910    0.0000 H       1  UNL1        0.0236
    102 H           8.7998   -1.3758    0.0000 H       1  UNL1        0.0236
    103 H           7.7767   -3.1798    0.0000 H       1  UNL1        0.0236
    104 H           8.6254   -3.4002    0.0000 H       1  UNL1        0.0236
    105 H           8.8458   -2.5515    0.0000 H       1  UNL1        0.0236
    106 H           7.2302    6.3213    0.0000 H       1  UNL1        0.0271
    107 H           6.4319    6.3151    0.0000 H       1  UNL1        0.0271
    108 H           5.9202    6.4669    0.0000 H       1  UNL1        0.0235
    109 H           5.0699    6.6808    0.0000 H       1  UNL1        0.0235
    110 H           4.8560    5.8304    0.0000 H       1  UNL1        0.0235
    111 H           4.8920    5.8950    0.0000 H       1  UNL1        0.0235
    112 H           4.2816    5.2655    0.0000 H       1  UNL1        0.0235
    113 H           4.9111    4.6551    0.0000 H       1  UNL1        0.0235
    114 H           6.0010   -3.4296    0.0000 H       1  UNL1        0.0938
    115 H           6.0010   -5.6696    0.0000 H       1  UNL1        0.0675
    116 H           9.4882    5.6199    0.0000 H       1  UNL1        0.1085
    117 H           4.5981   -5.8596    0.0000 H       1  UNL1        0.0648
    118 H           4.2690   -3.4296    0.0000 H       1  UNL1        0.0741
    119 H           3.7320   -4.7396    0.0000 H       1  UNL1        0.0652
    120 H          10.8933    5.4461    0.0000 H       1  UNL1        0.0683
    121 H          11.7463    6.5760    0.0000 H       1  UNL1        0.0648
    122 H           9.7892    8.0535    0.0000 H       1  UNL1        0.0647
    123 H          11.1943    7.8798    0.0000 H       1  UNL1        0.0647
    124 H           7.4040   -6.2396    0.0000 H       1  UNL1        0.0938
    125 H           4.5981   -6.8596    0.0000 H       1  UNL1        0.2100
    126 H           3.4030   -6.1696    0.0000 H       1  UNL1        0.2100
    127 H          10.9049    4.4462    0.0000 H       1  UNL1        0.2102
    128 H           8.2700   -7.3596    0.0000 H       1  UNL1        0.0671
    129 H          10.9299    8.6491    0.0000 H       1  UNL1        0.0584
    130 H          10.5234    9.3347    0.0000 H       1  UNL1        0.0584
    131 H          12.6181    6.0861    0.0000 H       1  UNL1        0.2100
    132 H           7.7331   -8.6696    0.0000 H       1  UNL1        0.0648
    133 H          12.0544    8.3897    0.0000 H       1  UNL1        0.2100
    134 H           5.4641   -7.7396    0.0000 H       1  UNL1        0.0647
    135 H           2.0000   -3.7396    0.0000 H       1  UNL1        0.2951
    136 H           7.4040   -8.8596    0.0000 H       1  UNL1        0.0647
    137 H           9.1360   -6.8596    0.0000 H       1  UNL1        0.2101
    138 H           9.4392    9.8596    0.0000 H       1  UNL1        0.2095
    139 H           4.9230   -7.9670    0.0000 H       1  UNL1        0.0584
    140 H           4.5244   -8.6572    0.0000 H       1  UNL1        0.0584
    141 H           9.1360   -8.2396    0.0000 H       1  UNL1        0.2100
    142 H           7.4040   -9.8596    0.0000 H       1  UNL1        0.2100
    143 H           5.6720   -9.8596    0.0000 H       1  UNL1        0.2095
@<TRIPOS>BOND
     1    35     1    1
     2    50     1    1
     3     2    47    1
     4    52     2    1
     5     3    47    2
     6     4    50    1
     7     4    54    1
     8    51     5    1
     9    60     5    1
    10     6    52    1
    11     6    58    1
    12    53     7    1
    13     7   125    1
    14    55     8    1
    15     8   126    1
    16    56     9    1
    17     9   127    1
    18    57    10    1
    19    10   131    1
    20    11    60    1
    21    11    65    1
    22    59    12    1
    23    12   133    1
    24    13    61    1
    25    13   135    1
    26    14    61    2
    27    62    15    1
    28    15   137    1
    29    16    63    1
    30    16   138    1
    31    64    17    1
    32    17   141    1
    33    66    18    1
    34    18   142    1
    35    19    67    1
    36    19   143    1
    37    20    21    1
    38    20    23    1
    39    20    25    1
    40    20    34    1
    41    21    22    1
    42    21    30    1
    43    21    68    1
    44    22    24    1
    45    22    31    1
    46    22    37    1
    47    23    28    1
    48    23    32    1
    49    23    40    1
    50    24    26    1
    51    24    27    1
    52    24    69    1
    53    25    27    1
    54    25    70    1
    55    25    71    1
    56    26    35    1
    57    26    44    1
    58    26    45    1
    59    27    72    1
    60    27    73    1
    61    28    29    1
    62    28    38    2
    63    29    33    1
    64    29    41    1
    65    29    74    1
    66    30    38    1
    67    30    75    1
    68    30    76    1
    69    31    39    1
    70    31    77    1
    71    31    78    1
    72    32    36    1
    73    32    79    1
    74    32    80    1
    75    33    36    1
    76    33    42    1
    77    33    47    1
    78    34    81    1
    79    34    82    1
    80    34    83    1
    81    35    39    1
    82    35    84    1
    83    36    85    1
    84    36    86    1
    85    37    87    1
    86    37    88    1
    87    37    89    1
    88    38    90    1
    89    39    91    1
    90    39    92    1
    91    40    93    1
    92    40    94    1
    93    40    95    1
    94    41    43    1
    95    41    96    1
    96    41    97    1
    97    42    46    1
    98    42    98    1
    99    42    99    1
   100    43    46    1
   101    43    48    1
   102    43    49    1
   103    44   100    1
   104    44   101    1
   105    44   102    1
   106    45   103    1
   107    45   104    1
   108    45   105    1
   109    46   106    1
   110    46   107    1
   111    48   108    1
   112    48   109    1
   113    48   110    1
   114    49   111    1
   115    49   112    1
   116    49   113    1
   117    50    51    1
   118    50   114    1
   119    51    53    1
   120    51   115    1
   121    52    56    1
   122    52   116    1
   123    53    55    1
   124    53   117    1
   125    54    55    1
   126    54    61    1
   127    54   118    1
   128    55   119    1
   129    56    57    1
   130    56   120    1
   131    57    59    1
   132    57   121    1
   133    58    59    1
   134    58    63    1
   135    58   122    1
   136    59   123    1
   137    60    62    1
   138    60   124    1
   139    62    64    1
   140    62   128    1
   141    63   129    1
   142    63   130    1
   143    64    66    1
   144    64   132    1
   145    65    66    1
   146    65    67    1
   147    65   134    1
   148    66   136    1
   149    67   139    1
   150    67   140    1
