@<TRIPOS>MOLECULE
IMPHY001942
 50 52 0 0 0
SMALL
GASTEIGER

@<TRIPOS>ATOM
      1 O           2.0000   -2.0095    0.0000 O.2     1  UNL1       -0.2968
      2 O           6.4082    2.5839    0.0000 O.3     1  UNL1       -0.5065
      3 C           4.6641   -1.4854    0.0000 C.3     1  UNL1       -0.0195
      4 C           4.6641   -0.4854    0.0000 C.3     1  UNL1       -0.0026
      5 C           3.7702   -2.0200    0.0000 C.3     1  UNL1        0.0270
      6 C           3.7702    0.0493    0.0000 C.3     1  UNL1       -0.0366
      7 C           5.5301   -1.9854    0.0000 C.3     1  UNL1       -0.0445
      8 C           5.5301    0.0146    0.0000 C.ar    1  UNL1       -0.0345
      9 C           2.8641   -0.4646    0.0000 C.3     1  UNL1        0.0072
     10 C           2.8641   -1.5062    0.0000 C.2     1  UNL1        0.1392
     11 C           6.3961   -1.4854    0.0000 C.3     1  UNL1       -0.0271
     12 C           4.6641    0.5146    0.0000 C.3     1  UNL1       -0.0552
     13 C           6.3961   -0.4854    0.0000 C.ar    1  UNL1       -0.0432
     14 C           3.2802   -2.8918    0.0000 C.3     1  UNL1       -0.0528
     15 C           4.2801   -2.8802    0.0000 C.3     1  UNL1       -0.0528
     16 C           5.5141    1.0561    0.0000 C.ar    1  UNL1       -0.0159
     17 C           7.3062    0.0215    0.0000 C.ar    1  UNL1       -0.0514
     18 C           7.3142    1.0631    0.0000 C.ar    1  UNL1       -0.0031
     19 C           6.4121    1.5839    0.0000 C.ar    1  UNL1        0.1206
     20 C           8.1821    1.5597    0.0000 C.3     1  UNL1       -0.0181
     21 C           9.0462    1.0564    0.0000 C.3     1  UNL1       -0.0585
     22 C           8.1860    2.5597    0.0000 C.3     1  UNL1       -0.0585
     23 H           4.6706   -2.3354    0.0000 H       1  UNL1        0.0319
     24 H           4.1748    0.5191    0.0000 H       1  UNL1        0.0278
     25 H           3.3765    0.5283    0.0000 H       1  UNL1        0.0278
     26 H           5.1316   -2.4603    0.0000 H       1  UNL1        0.0272
     27 H           5.9286   -2.4603    0.0000 H       1  UNL1        0.0272
     28 H           2.6550    0.1191    0.0000 H       1  UNL1        0.0342
     29 H           2.2532   -0.5707    0.0000 H       1  UNL1        0.0342
     30 H           6.6082   -2.0680    0.0000 H       1  UNL1        0.0313
     31 H           7.0067   -1.3777    0.0000 H       1  UNL1        0.0313
     32 H           5.2841    0.5146    0.0000 H       1  UNL1        0.0238
     33 H           4.6641    1.1346    0.0000 H       1  UNL1        0.0238
     34 H           4.0441    0.5146    0.0000 H       1  UNL1        0.0238
     35 H           2.7397   -2.5880    0.0000 H       1  UNL1        0.0239
     36 H           2.9764   -3.4323    0.0000 H       1  UNL1        0.0239
     37 H           3.8207   -3.1956    0.0000 H       1  UNL1        0.0239
     38 H           3.7468   -3.1964    0.0000 H       1  UNL1        0.0239
     39 H           4.5963   -3.4136    0.0000 H       1  UNL1        0.0239
     40 H           4.8134   -2.5640    0.0000 H       1  UNL1        0.0239
     41 H           4.9736    1.3599    0.0000 H       1  UNL1        0.0657
     42 H           7.8395   -0.2947    0.0000 H       1  UNL1        0.0624
     43 H           8.7203    1.8676    0.0000 H       1  UNL1        0.0345
     44 H           5.8701    2.8918    0.0000 H       1  UNL1        0.2921
     45 H           8.8060    2.5573    0.0000 H       1  UNL1        0.0235
     46 H           8.1884    3.1797    0.0000 H       1  UNL1        0.0235
     47 H           7.5660    2.5621    0.0000 H       1  UNL1        0.0235
     48 H           8.7342    0.5206    0.0000 H       1  UNL1        0.0235
     49 H           9.5820    0.7443    0.0000 H       1  UNL1        0.0235
     50 H           9.3583    1.5921    0.0000 H       1  UNL1        0.0235
@<TRIPOS>BOND
     1     1    10    2
     2     2    19    1
     3     2    44    1
     4     3     4    1
     5     3     5    1
     6     3     7    1
     7     3    23    1
     8     4     6    1
     9     4     8    1
    10     4    12    1
    11     5    10    1
    12     5    14    1
    13     5    15    1
    14     6     9    1
    15     6    24    1
    16     6    25    1
    17     7    11    1
    18     7    26    1
    19     7    27    1
    20     8    13   ar
    21     8    16   ar
    22     9    10    1
    23     9    28    1
    24     9    29    1
    25    11    13    1
    26    11    30    1
    27    11    31    1
    28    12    32    1
    29    12    33    1
    30    12    34    1
    31    13    17   ar
    32    14    35    1
    33    14    36    1
    34    14    37    1
    35    15    38    1
    36    15    39    1
    37    15    40    1
    38    16    19   ar
    39    16    41    1
    40    17    18   ar
    41    17    42    1
    42    18    19   ar
    43    18    20    1
    44    20    21    1
    45    20    22    1
    46    20    43    1
    47    21    48    1
    48    21    49    1
    49    21    50    1
    50    22    45    1
    51    22    46    1
    52    22    47    1
