@<TRIPOS>MOLECULE
IMPHY003404
 24 25 0 0 0
SMALL
GASTEIGER

@<TRIPOS>ATOM
      1 S           5.0929    0.7802    0.0000 S.2     1  UNL1       -0.0813
      2 S           7.1620    0.1080    0.0000 S.2     1  UNL1       -0.0794
      3 O           2.5896    1.7282    0.0000 O.3     1  UNL1       -0.4768
      4 O           3.1249    0.0809    0.0000 O.2     1  UNL1       -0.2445
      5 C           5.9019    1.3680    0.0000 C.ar    1  UNL1        0.0267
      6 C           6.8530    1.0590    0.0000 C.ar    1  UNL1        0.0271
      7 C           5.5929    2.3191    0.0000 C.ar    1  UNL1       -0.0456
      8 C           7.6620    1.6468    0.0000 C.ar    1  UNL1       -0.0452
      9 C           4.2839    1.3680    0.0000 C.ar    1  UNL1        0.0966
     10 C           4.5929    2.3191    0.0000 C.ar    1  UNL1       -0.0400
     11 C           8.4710    1.0590    0.0000 C.ar    1  UNL1       -0.0386
     12 C           8.1620    0.1080    0.0000 C.ar    1  UNL1        0.0625
     13 C           3.3328    1.0590    0.0000 C.2     1  UNL1        0.3435
     14 C           8.7498   -0.7011    0.0000 C.1     1  UNL1       -0.0594
     15 C           9.3375   -1.5101    0.0000 C.1     1  UNL1       -0.0998
     16 C           9.9253   -2.3191    0.0000 C.3     1  UNL1       -0.0022
     17 H           5.9573    2.8207    0.0000 H       1  UNL1        0.0629
     18 H           7.6620    2.2668    0.0000 H       1  UNL1        0.0629
     19 H           4.2284    2.8207    0.0000 H       1  UNL1        0.0631
     20 H           9.0606    1.2506    0.0000 H       1  UNL1        0.0635
     21 H           2.0000    1.5366    0.0000 H       1  UNL1        0.2954
     22 H           9.4237   -2.6835    0.0000 H       1  UNL1        0.0362
     23 H          10.2897   -2.8207    0.0000 H       1  UNL1        0.0362
     24 H          10.4269   -1.9547    0.0000 H       1  UNL1        0.0362
@<TRIPOS>BOND
     1     1     5   ar
     2     1     9   ar
     3     2     6   ar
     4     2    12   ar
     5     3    13    1
     6     3    21    1
     7     4    13    2
     8     5     6    1
     9     5     7   ar
    10     6     8   ar
    11     7    10   ar
    12     7    17    1
    13     8    11   ar
    14     8    18    1
    15     9    10   ar
    16     9    13    1
    17    10    19    1
    18    11    12   ar
    19    11    20    1
    20    12    14    1
    21    14    15    3
    22    15    16    1
    23    16    22    1
    24    16    23    1
    25    16    24    1
