@<TRIPOS>MOLECULE
IMPHY014387
 57 60 0 0 0
SMALL
GASTEIGER

@<TRIPOS>ATOM
      1 O           4.6548    0.9329    0.0000 O.3     1  UNL1       -0.3845
      2 O           4.8027    2.4819    0.0000 O.3     1  UNL1       -0.3889
      3 O           8.6179    1.1393    0.0000 O.3     1  UNL1       -0.3785
      4 O           8.1745   -0.0381    0.0000 O.2     1  UNL1       -0.2936
      5 O           9.4022    2.0396    0.0000 O.3     1  UNL1       -0.3917
      6 O           2.3052   -2.2225    0.0000 O.3     1  UNL1       -0.4802
      7 O           3.8128   -3.0752    0.0000 O.2     1  UNL1       -0.2504
      8 C           6.5090    0.2685    0.0000 C.3     1  UNL1        0.0639
      9 C           5.6405    0.7641    0.0000 C.3     1  UNL1        0.1097
     10 C           4.7330    0.2528    0.0000 C.3     1  UNL1        0.0039
     11 C           4.7302   -0.7889    0.0000 C.3     1  UNL1       -0.0174
     12 C           6.4845    1.4498    0.0000 C.3     1  UNL1       -0.0318
     13 C           7.1606    2.4189    0.0000 C.3     1  UNL1        0.0004
     14 C           6.5302   -0.7729    0.0000 C.3     1  UNL1       -0.0375
     15 C           5.4865    1.7522    0.0000 C.3     1  UNL1        0.0857
     16 C           5.6349   -1.3052    0.0000 C.3     1  UNL1       -0.0476
     17 C           7.7280    1.5955    0.0000 C.3     1  UNL1        0.1498
     18 C           7.4380    0.6384    0.0000 C.2     1  UNL1        0.1760
     19 C           6.1630    2.4886    0.0000 C.3     1  UNL1       -0.0181
     20 C           3.7975   -1.3432    0.0000 C.3     1  UNL1        0.0682
     21 C           3.8034    0.8122    0.0000 C.3     1  UNL1       -0.0446
     22 C           5.3861    1.3768    0.0000 C.3     1  UNL1       -0.0565
     23 C           2.8552   -0.8054    0.0000 C.3     1  UNL1       -0.0372
     24 C           2.8582    0.2796    0.0000 C.3     1  UNL1       -0.0515
     25 C           8.4369    2.3008    0.0000 C.3     1  UNL1        0.0801
     26 C           4.3052   -2.2048    0.0000 C.3     1  UNL1       -0.0491
     27 C           3.3052   -2.2137    0.0000 C.2     1  UNL1        0.3110
     28 H           4.7377   -1.6388    0.0000 H       1  UNL1        0.0317
     29 H           6.1103    1.9441    0.0000 H       1  UNL1        0.0279
     30 H           5.8988    1.2464    0.0000 H       1  UNL1        0.0279
     31 H           7.4071    3.2324    0.0000 H       1  UNL1        0.0335
     32 H           6.7512   -1.3522    0.0000 H       1  UNL1        0.0276
     33 H           7.1388   -0.6544    0.0000 H       1  UNL1        0.0276
     34 H           4.9293    1.4804    0.0000 H       1  UNL1        0.0622
     35 H           5.2399   -1.7831    0.0000 H       1  UNL1        0.0269
     36 H           6.0382   -1.7761    0.0000 H       1  UNL1        0.0269
     37 H           6.3428    3.0820    0.0000 H       1  UNL1        0.0295
     38 H           5.6246    2.7960    0.0000 H       1  UNL1        0.0295
     39 H           4.2093    1.2809    0.0000 H       1  UNL1        0.0272
     40 H           3.4111    1.2923    0.0000 H       1  UNL1        0.0272
     41 H           5.9222    1.0654    0.0000 H       1  UNL1        0.0236
     42 H           5.6976    1.9129    0.0000 H       1  UNL1        0.0236
     43 H           4.8500    1.6883    0.0000 H       1  UNL1        0.0236
     44 H           2.2446   -0.6977    0.0000 H       1  UNL1        0.0276
     45 H           2.6446   -1.3886    0.0000 H       1  UNL1        0.0276
     46 H           2.6507    0.8638    0.0000 H       1  UNL1        0.0266
     47 H           2.2470    0.1751    0.0000 H       1  UNL1        0.0266
     48 H           4.1779    1.3290    0.0000 H       1  UNL1        0.2103
     49 H           8.7003    2.8621    0.0000 H       1  UNL1        0.0590
     50 H           7.9299    2.6577    0.0000 H       1  UNL1        0.0590
     51 H           3.7710   -2.5196    0.0000 H       1  UNL1        0.0240
     52 H           4.6199   -2.7390    0.0000 H       1  UNL1        0.0240
     53 H           4.8393   -1.8901    0.0000 H       1  UNL1        0.0240
     54 H           4.9825    3.0752    0.0000 H       1  UNL1        0.2099
     55 H           8.6488    0.5200    0.0000 H       1  UNL1        0.2109
     56 H           9.8417    2.4769    0.0000 H       1  UNL1        0.2095
     57 H           2.0000   -2.7622    0.0000 H       1  UNL1        0.2951
@<TRIPOS>BOND
     1     9     1    1
     2     1    48    1
     3    15     2    1
     4     2    54    1
     5    17     3    1
     6     3    55    1
     7     4    18    2
     8     5    25    1
     9     5    56    1
    10     6    27    1
    11     6    57    1
    12     7    27    2
    13     8     9    1
    14     8    12    1
    15     8    14    1
    16     8    18    1
    17     9    10    1
    18     9    15    1
    19    10    11    1
    20    10    21    1
    21    10    22    1
    22    11    16    1
    23    11    20    1
    24    11    28    1
    25    12    13    1
    26    12    29    1
    27    12    30    1
    28    13    17    1
    29    13    19    1
    30    13    31    1
    31    14    16    1
    32    14    32    1
    33    14    33    1
    34    15    19    1
    35    15    34    1
    36    16    35    1
    37    16    36    1
    38    17    18    1
    39    17    25    1
    40    19    37    1
    41    19    38    1
    42    20    23    1
    43    20    26    1
    44    20    27    1
    45    21    24    1
    46    21    39    1
    47    21    40    1
    48    22    41    1
    49    22    42    1
    50    22    43    1
    51    23    24    1
    52    23    44    1
    53    23    45    1
    54    24    46    1
    55    24    47    1
    56    25    49    1
    57    25    50    1
    58    26    51    1
    59    26    52    1
    60    26    53    1
