@<TRIPOS>MOLECULE
IMPHY017171
 25 25 0 0 0
SMALL
GASTEIGER

@<TRIPOS>ATOM
      1 O           2.8660   -0.7500    0.0000 O.3     1  UNL1       -0.4644
      2 O           3.7320    0.7500    0.0000 O.2     1  UNL1       -0.2449
      3 O           7.1962    0.7500    0.0000 O.2     1  UNL1       -0.2758
      4 N           5.4641    0.7500    0.0000 N.am    1  UNL1       -0.2850
      5 C           5.4641   -0.2500    0.0000 C.ar    1  UNL1        0.0474
      6 C           4.5981   -0.7500    0.0000 C.ar    1  UNL1        0.0801
      7 C           6.3301   -0.7500    0.0000 C.ar    1  UNL1       -0.0397
      8 C           4.5981   -1.7500    0.0000 C.ar    1  UNL1       -0.0460
      9 C           6.3301   -1.7500    0.0000 C.ar    1  UNL1       -0.0600
     10 C           5.4641   -2.2500    0.0000 C.ar    1  UNL1       -0.0609
     11 C           3.7320   -0.2500    0.0000 C.2     1  UNL1        0.3407
     12 C           6.3301    1.2500    0.0000 C.2     1  UNL1        0.2141
     13 C           6.3301    2.2500    0.0000 C.3     1  UNL1        0.0125
     14 C           2.0000   -0.2500    0.0000 C.3     1  UNL1        0.0820
     15 H           6.8671   -0.4400    0.0000 H       1  UNL1        0.0636
     16 H           4.0611   -2.0600    0.0000 H       1  UNL1        0.0626
     17 H           4.9272    1.0600    0.0000 H       1  UNL1        0.1548
     18 H           6.8671   -2.0600    0.0000 H       1  UNL1        0.0618
     19 H           5.4641   -2.8700    0.0000 H       1  UNL1        0.0618
     20 H           6.9501    2.2500    0.0000 H       1  UNL1        0.0323
     21 H           6.3301    2.8700    0.0000 H       1  UNL1        0.0323
     22 H           5.7101    2.2500    0.0000 H       1  UNL1        0.0323
     23 H           2.3100    0.2869    0.0000 H       1  UNL1        0.0661
     24 H           1.4631    0.0600    0.0000 H       1  UNL1        0.0661
     25 H           1.6900   -0.7869    0.0000 H       1  UNL1        0.0661
@<TRIPOS>BOND
     1     1    11    1
     2     1    14    1
     3     2    11    2
     4     3    12    2
     5     4     5    1
     6     4    12   am
     7     4    17    1
     8     5     6   ar
     9     5     7   ar
    10     6     8   ar
    11     6    11    1
    12     7     9   ar
    13     7    15    1
    14     8    10   ar
    15     8    16    1
    16     9    10   ar
    17     9    18    1
    18    10    19    1
    19    12    13    1
    20    13    20    1
    21    13    21    1
    22    13    22    1
    23    14    23    1
    24    14    24    1
    25    14    25    1
