@<TRIPOS>MOLECULE
IMPHY016088
 29 28 0 0 0
SMALL
GASTEIGER

@<TRIPOS>ATOM
      1 C           4.5981    0.0000    0.0000 C.3     1  UNL1       -0.0390
      2 C           5.4641    0.5000    0.0000 C.3     1  UNL1       -0.0439
      3 C           3.7320    0.5000    0.0000 C.3     1  UNL1       -0.0502
      4 C           4.5981   -1.0000    0.0000 C.3     1  UNL1       -0.0528
      5 C           2.8660   -0.0000    0.0000 C.3     1  UNL1       -0.0557
      6 C           6.3301    0.0000    0.0000 C.3     1  UNL1       -0.0624
      7 C           5.4641    1.5000    0.0000 C.3     1  UNL1       -0.0624
      8 C           3.7320   -1.5000    0.0000 C.3     1  UNL1       -0.0650
      9 C           2.0000    0.5000    0.0000 C.3     1  UNL1       -0.0653
     10 H           4.5981    0.6200    0.0000 H       1  UNL1        0.0303
     11 H           5.4641   -0.1200    0.0000 H       1  UNL1        0.0298
     12 H           4.1306    0.9749    0.0000 H       1  UNL1        0.0268
     13 H           3.3335    0.9749    0.0000 H       1  UNL1        0.0268
     14 H           4.8101   -1.5826    0.0000 H       1  UNL1        0.0265
     15 H           5.2087   -0.8923    0.0000 H       1  UNL1        0.0265
     16 H           2.4675   -0.4749    0.0000 H       1  UNL1        0.0263
     17 H           3.2646   -0.4749    0.0000 H       1  UNL1        0.0263
     18 H           6.0201   -0.5369    0.0000 H       1  UNL1        0.0232
     19 H           6.8671   -0.3100    0.0000 H       1  UNL1        0.0232
     20 H           6.6401    0.5369    0.0000 H       1  UNL1        0.0232
     21 H           6.0841    1.5000    0.0000 H       1  UNL1        0.0232
     22 H           5.4641    2.1200    0.0000 H       1  UNL1        0.0232
     23 H           4.8441    1.5000    0.0000 H       1  UNL1        0.0232
     24 H           3.4220   -0.9631    0.0000 H       1  UNL1        0.0230
     25 H           3.1951   -1.8100    0.0000 H       1  UNL1        0.0230
     26 H           4.0420   -2.0369    0.0000 H       1  UNL1        0.0230
     27 H           2.3100    1.0369    0.0000 H       1  UNL1        0.0230
     28 H           1.4631    0.8100    0.0000 H       1  UNL1        0.0230
     29 H           1.6900   -0.0369    0.0000 H       1  UNL1        0.0230
@<TRIPOS>BOND
     1     1     2    1
     2     1     3    1
     3     1     4    1
     4     1    10    1
     5     2     6    1
     6     2     7    1
     7     2    11    1
     8     3     5    1
     9     3    12    1
    10     3    13    1
    11     4     8    1
    12     4    14    1
    13     4    15    1
    14     5     9    1
    15     5    16    1
    16     5    17    1
    17     6    18    1
    18     6    19    1
    19     6    20    1
    20     7    21    1
    21     7    22    1
    22     7    23    1
    23     8    24    1
    24     8    25    1
    25     8    26    1
    26     9    27    1
    27     9    28    1
    28     9    29    1
