@<TRIPOS>MOLECULE
IMPHY005288
 53 56 0 0 0
SMALL
GASTEIGER

@<TRIPOS>ATOM
      1 O           5.1350   -1.6725    0.0000 O.3     1  UNL1       -0.3313
      2 O           6.8671   -1.6725    0.0000 O.3     1  UNL1       -0.4569
      3 O           5.1350   -4.6725    0.0000 O.3     1  UNL1       -0.3864
      4 O           3.4030   -3.6725    0.0000 O.3     1  UNL1       -0.3865
      5 O           6.8671   -3.6725    0.0000 O.3     1  UNL1       -0.3829
      6 O           2.5369   -2.1725    0.0000 O.3     1  UNL1       -0.3924
      7 O           8.6431    1.3343    0.0000 O.2     1  UNL1       -0.4543
      8 O           5.1350   -0.6725    0.0000 O.3     1  UNL1       -0.5009
      9 O           5.1350    1.3275    0.0000 O.3     1  UNL1       -0.5027
     10 O           5.9793    2.8589    0.0000 O.2     1  UNL1       -0.2869
     11 O          12.1152    2.3626    0.0000 O.3     1  UNL1       -0.5033
     12 O          12.1229    4.3625    0.0000 O.3     1  UNL1       -0.5033
     13 C           5.1350   -3.6725    0.0000 C.3     1  UNL1        0.1152
     14 C           4.2690   -3.1725    0.0000 C.3     1  UNL1        0.1120
     15 C           6.0010   -3.1725    0.0000 C.3     1  UNL1        0.1454
     16 C           4.2690   -2.1725    0.0000 C.3     1  UNL1        0.1140
     17 C           6.0010   -2.1725    0.0000 C.3     1  UNL1        0.2310
     18 C           3.4030   -1.6725    0.0000 C.3     1  UNL1        0.0731
     19 C           6.8671   -0.6725    0.0000 C.ar    1  UNL1        0.1724
     20 C           7.7331   -0.1725    0.0000 C.ar    1  UNL1        0.0271
     21 C           6.0010   -0.1725    0.0000 C.ar    1  UNL1        0.2019
     22 C           7.7331    0.8275    0.0000 C.ar    1  UNL1        0.1465
     23 C           6.8671    1.3275    0.0000 C.ar    1  UNL1        0.1091
     24 C           6.0010    0.8275    0.0000 C.ar    1  UNL1        0.1766
     25 C           6.8510    2.3690    0.0000 C.ar    1  UNL1        0.1967
     26 C           8.6511    2.3759    0.0000 C.ar    1  UNL1        0.1393
     27 C           7.7490    2.8967    0.0000 C.ar    1  UNL1        0.0288
     28 C           9.5191    2.8726    0.0000 C.ar    1  UNL1        0.0211
     29 C          10.3832    2.3692    0.0000 C.ar    1  UNL1       -0.0059
     30 C           9.5229    3.8726    0.0000 C.ar    1  UNL1       -0.0474
     31 C          11.2511    2.8659    0.0000 C.ar    1  UNL1        0.1589
     32 C          10.3909    4.3692    0.0000 C.ar    1  UNL1       -0.0159
     33 C          11.2550    3.8659    0.0000 C.ar    1  UNL1        0.1583
     34 H           5.6720   -3.9825    0.0000 H       1  UNL1        0.0648
     35 H           4.2690   -3.7925    0.0000 H       1  UNL1        0.0647
     36 H           6.5380   -2.8625    0.0000 H       1  UNL1        0.0683
     37 H           4.2690   -1.5525    0.0000 H       1  UNL1        0.0647
     38 H           6.0010   -1.5525    0.0000 H       1  UNL1        0.1084
     39 H           3.8015   -1.1976    0.0000 H       1  UNL1        0.0584
     40 H           3.0044   -1.1976    0.0000 H       1  UNL1        0.0584
     41 H           4.5981   -4.9825    0.0000 H       1  UNL1        0.2100
     42 H           3.4030   -4.2925    0.0000 H       1  UNL1        0.2100
     43 H           6.8671   -4.2925    0.0000 H       1  UNL1        0.2102
     44 H           2.0000   -1.8625    0.0000 H       1  UNL1        0.2095
     45 H           8.2700   -0.4825    0.0000 H       1  UNL1        0.0692
     46 H           7.7466    3.5167    0.0000 H       1  UNL1        0.0693
     47 H           4.5981   -0.3625    0.0000 H       1  UNL1        0.2924
     48 H           4.5981    1.0175    0.0000 H       1  UNL1        0.2923
     49 H          10.3808    1.7492    0.0000 H       1  UNL1        0.0662
     50 H           8.9872    4.1846    0.0000 H       1  UNL1        0.0626
     51 H          10.3933    4.9892    0.0000 H       1  UNL1        0.0655
     52 H          12.6533    2.6705    0.0000 H       1  UNL1        0.2923
     53 H          12.1253    4.9825    0.0000 H       1  UNL1        0.2923
@<TRIPOS>BOND
     1     1    16    1
     2     1    17    1
     3    17     2    1
     4     2    19    1
     5    13     3    1
     6     3    41    1
     7    14     4    1
     8     4    42    1
     9    15     5    1
    10     5    43    1
    11     6    18    1
    12     6    44    1
    13     7    22   ar
    14     7    26   ar
    15     8    21    1
    16     8    47    1
    17     9    24    1
    18     9    48    1
    19    10    25    2
    20    11    31    1
    21    11    52    1
    22    12    33    1
    23    12    53    1
    24    13    14    1
    25    13    15    1
    26    13    34    1
    27    14    16    1
    28    14    35    1
    29    15    17    1
    30    15    36    1
    31    16    18    1
    32    16    37    1
    33    17    38    1
    34    18    39    1
    35    18    40    1
    36    19    20   ar
    37    19    21   ar
    38    20    22   ar
    39    20    45    1
    40    21    24   ar
    41    22    23   ar
    42    23    24   ar
    43    23    25   ar
    44    25    27   ar
    45    26    27   ar
    46    26    28    1
    47    27    46    1
    48    28    29   ar
    49    28    30   ar
    50    29    31   ar
    51    29    49    1
    52    30    32   ar
    53    30    50    1
    54    31    33   ar
    55    32    33   ar
    56    32    51    1
