@<TRIPOS>MOLECULE
IMPHY015782
 52 55 0 0 0
SMALL
GASTEIGER

@<TRIPOS>ATOM
      1 O           5.3800    1.7403    0.0000 O.3     1  UNL1       -0.4808
      2 O           2.8153    0.1914    0.0000 O.2     1  UNL1       -0.4546
      3 O           3.6200    4.7750    0.0000 O.3     1  UNL1       -0.5061
      4 O           2.6200   -3.3529    0.0000 O.3     1  UNL1       -0.5064
      5 C           6.2860    2.2542    0.0000 C.3     1  UNL1        0.1235
      6 C           4.4860    2.2750    0.0000 C.ar    1  UNL1        0.1430
      7 C           3.6200    1.7750    0.0000 C.ar    1  UNL1        0.0598
      8 C           4.4860    3.2750    0.0000 C.ar    1  UNL1        0.0586
      9 C           6.2860    3.2958    0.0000 C.2     1  UNL1       -0.0408
     10 C           3.6200    0.7750    0.0000 C.ar    1  UNL1        0.1398
     11 C           7.2860    2.2503    0.0000 C.3     1  UNL1       -0.0215
     12 C           6.7827    1.3862    0.0000 C.3     1  UNL1       -0.0215
     13 C           5.3800    3.8096    0.0000 C.2     1  UNL1       -0.0478
     14 C           4.1200   -0.7549    0.0000 C.ar    1  UNL1        0.0213
     15 C           3.1200   -0.7549    0.0000 C.ar    1  UNL1        0.1392
     16 C           4.4247    0.1914    0.0000 C.ar    1  UNL1       -0.0080
     17 C           3.6200    3.7750    0.0000 C.ar    1  UNL1        0.1275
     18 C           2.7540    2.2750    0.0000 C.ar    1  UNL1       -0.0441
     19 C           4.1200   -2.4869    0.0000 C.ar    1  UNL1       -0.0014
     20 C           4.6200   -1.6209    0.0000 C.ar    1  UNL1       -0.0440
     21 C           2.7540    3.2750    0.0000 C.ar    1  UNL1       -0.0187
     22 C           2.6200   -1.6209    0.0000 C.ar    1  UNL1        0.0230
     23 C           3.1200   -2.4869    0.0000 C.ar    1  UNL1        0.1238
     24 C           4.6200   -3.3529    0.0000 C.3     1  UNL1       -0.0058
     25 C           5.6200   -3.3529    0.0000 C.2     1  UNL1       -0.0809
     26 C           6.1200   -4.2190    0.0000 C.2     1  UNL1       -0.0793
     27 C           7.1200   -4.2190    0.0000 C.3     1  UNL1       -0.0440
     28 C           5.6200   -5.0850    0.0000 C.3     1  UNL1       -0.0440
     29 H           6.8218    3.6079    0.0000 H       1  UNL1        0.0611
     30 H           7.2836    1.6303    0.0000 H       1  UNL1        0.0271
     31 H           7.9060    2.2479    0.0000 H       1  UNL1        0.0271
     32 H           7.2884    2.8703    0.0000 H       1  UNL1        0.0271
     33 H           6.2446    1.0783    0.0000 H       1  UNL1        0.0271
     34 H           7.0906    0.8481    0.0000 H       1  UNL1        0.0271
     35 H           7.3208    1.6941    0.0000 H       1  UNL1        0.0271
     36 H           5.3728    4.4296    0.0000 H       1  UNL1        0.0624
     37 H           5.0140    0.3840    0.0000 H       1  UNL1        0.0661
     38 H           2.2170    1.9650    0.0000 H       1  UNL1        0.0627
     39 H           5.2400   -1.6209    0.0000 H       1  UNL1        0.0629
     40 H           2.2170    3.5850    0.0000 H       1  UNL1        0.0654
     41 H           2.0000   -1.6209    0.0000 H       1  UNL1        0.0691
     42 H           4.0374   -3.5650    0.0000 H       1  UNL1        0.0357
     43 H           4.7277   -3.9635    0.0000 H       1  UNL1        0.0357
     44 H           5.9300   -2.8160    0.0000 H       1  UNL1        0.0575
     45 H           3.0831    5.0850    0.0000 H       1  UNL1        0.2922
     46 H           2.0000   -3.3529    0.0000 H       1  UNL1        0.2921
     47 H           7.1200   -4.8390    0.0000 H       1  UNL1        0.0274
     48 H           7.7400   -4.2190    0.0000 H       1  UNL1        0.0274
     49 H           7.1200   -3.5990    0.0000 H       1  UNL1        0.0274
     50 H           5.0831   -4.7750    0.0000 H       1  UNL1        0.0274
     51 H           5.3100   -5.6219    0.0000 H       1  UNL1        0.0274
     52 H           6.1569   -5.3950    0.0000 H       1  UNL1        0.0274
@<TRIPOS>BOND
     1     1     5    1
     2     1     6    1
     3     2    10   ar
     4     2    15   ar
     5     3    17    1
     6     3    45    1
     7     4    23    1
     8     4    46    1
     9     5     9    1
    10     5    11    1
    11     5    12    1
    12     6     7   ar
    13     6     8   ar
    14     7    10    1
    15     7    18   ar
    16     8    13    1
    17     8    17   ar
    18     9    13    2
    19     9    29    1
    20    10    16   ar
    21    11    30    1
    22    11    31    1
    23    11    32    1
    24    12    33    1
    25    12    34    1
    26    12    35    1
    27    13    36    1
    28    14    15   ar
    29    14    16   ar
    30    14    20   ar
    31    15    22   ar
    32    16    37    1
    33    17    21   ar
    34    18    21   ar
    35    18    38    1
    36    19    20   ar
    37    19    23   ar
    38    19    24    1
    39    20    39    1
    40    21    40    1
    41    22    23   ar
    42    22    41    1
    43    24    25    1
    44    24    42    1
    45    24    43    1
    46    25    26    2
    47    25    44    1
    48    26    27    1
    49    26    28    1
    50    27    47    1
    51    27    48    1
    52    27    49    1
    53    28    50    1
    54    28    51    1
    55    28    52    1
