@<TRIPOS>MOLECULE
IMPHY013824
 84 91 0 0 0
SMALL
GASTEIGER

@<TRIPOS>ATOM
      1 O           4.2690   -1.2846    0.0000 O.3     1  UNL1       -0.3404
      2 O           7.1990   -0.2097    0.0000 O.3     1  UNL1       -0.4640
      3 O           5.1350    0.2154    0.0000 O.3     1  UNL1       -0.3405
      4 O           4.2529    2.7569    0.0000 O.3     1  UNL1       -0.3386
      5 O           8.5826   -1.3238    0.0000 O.2     1  UNL1       -0.2505
      6 O           2.5369   -0.2846    0.0000 O.3     1  UNL1       -0.3841
      7 O           6.0530    2.7638    0.0000 O.3     1  UNL1       -0.3445
      8 O           2.5369    1.7154    0.0000 O.3     1  UNL1       -0.3864
      9 O           3.4493   -5.0279    0.0000 O.3     1  UNL1       -0.4526
     10 O           4.9012   -5.8662    0.0000 O.3     1  UNL1       -0.4526
     11 O          10.3312   -2.7846    0.0000 O.3     1  UNL1       -0.4913
     12 O           8.5991   -5.7846    0.0000 O.3     1  UNL1       -0.4913
     13 O          10.3312   -4.7846    0.0000 O.3     1  UNL1       -0.4885
     14 C           6.0010   -1.2846    0.0000 C.3     1  UNL1        0.0375
     15 C           6.8671   -1.7846    0.0000 C.3     1  UNL1        0.0758
     16 C           5.1350   -1.7846    0.0000 C.3     1  UNL1        0.0938
     17 C           6.8671   -2.7846    0.0000 C.3     1  UNL1        0.0233
     18 C           5.1350   -2.7846    0.0000 C.ar    1  UNL1       -0.0109
     19 C           6.0010   -3.2846    0.0000 C.ar    1  UNL1       -0.0298
     20 C           6.2102   -0.3128    0.0000 C.3     1  UNL1        0.0987
     21 C           7.6041   -1.1175    0.0000 C.2     1  UNL1        0.3116
     22 C           4.2690   -0.2846    0.0000 C.3     1  UNL1        0.1886
     23 C           7.7331   -3.2846    0.0000 C.ar    1  UNL1       -0.0320
     24 C           3.4030    0.2154    0.0000 C.3     1  UNL1        0.1341
     25 C           4.2690    1.7154    0.0000 C.3     1  UNL1        0.1187
     26 C           3.4030    1.2154    0.0000 C.3     1  UNL1        0.1144
     27 C           5.1350    1.2154    0.0000 C.3     1  UNL1        0.1137
     28 C           4.2250   -3.2915    0.0000 C.ar    1  UNL1       -0.0102
     29 C           6.0171   -4.3261    0.0000 C.ar    1  UNL1       -0.0120
     30 C           4.2170   -4.3331    0.0000 C.ar    1  UNL1        0.1666
     31 C           5.1191   -4.8539    0.0000 C.ar    1  UNL1        0.1665
     32 C           6.0450    1.7222    0.0000 C.3     1  UNL1        0.0798
     33 C           7.7331   -4.2846    0.0000 C.ar    1  UNL1       -0.0123
     34 C           8.5991   -2.7846    0.0000 C.ar    1  UNL1       -0.0123
     35 C           5.1510    3.2846    0.0000 C.3     1  UNL1        0.1859
     36 C           9.4651   -3.2846    0.0000 C.ar    1  UNL1        0.1654
     37 C           8.5991   -4.7846    0.0000 C.ar    1  UNL1        0.1654
     38 C           3.8713   -5.9735    0.0000 C.3     1  UNL1        0.2332
     39 C           9.4651   -4.2846    0.0000 C.ar    1  UNL1        0.2035
     40 C           5.1471    4.2846    0.0000 C.ar    1  UNL1        0.0079
     41 C           4.2792    4.7813    0.0000 C.ar    1  UNL1       -0.0538
     42 C           6.0112    4.7880    0.0000 C.ar    1  UNL1       -0.0538
     43 C          11.1972   -3.2846    0.0000 C.3     1  UNL1        0.0790
     44 C           7.7331   -6.2846    0.0000 C.3     1  UNL1        0.0790
     45 C           4.2753    5.7813    0.0000 C.ar    1  UNL1       -0.0613
     46 C           6.0074    5.7880    0.0000 C.ar    1  UNL1       -0.0613
     47 C          10.3312   -5.7846    0.0000 C.3     1  UNL1        0.0791
     48 C           5.1394    6.2846    0.0000 C.ar    1  UNL1       -0.0617
     49 H           5.3140   -0.7841    0.0000 H       1  UNL1        0.0370
     50 H           7.6440   -2.1293    0.0000 H       1  UNL1        0.0427
     51 H           5.1350   -1.1646    0.0000 H       1  UNL1        0.0651
     52 H           7.4040   -2.4746    0.0000 H       1  UNL1        0.0405
     53 H           6.2111    0.3072    0.0000 H       1  UNL1        0.0701
     54 H           5.5938   -0.2468    0.0000 H       1  UNL1        0.0701
     55 H           3.7320   -0.5946    0.0000 H       1  UNL1        0.0938
     56 H           2.8660    0.5254    0.0000 H       1  UNL1        0.0671
     57 H           5.0018    2.1460    0.0000 H       1  UNL1        0.0651
     58 H           3.4030    1.8354    0.0000 H       1  UNL1        0.0648
     59 H           5.8678    0.7847    0.0000 H       1  UNL1        0.0647
     60 H           3.6917   -2.9753    0.0000 H       1  UNL1        0.0659
     61 H           6.5576   -4.6299    0.0000 H       1  UNL1        0.0658
     62 H           6.2496    1.1369    0.0000 H       1  UNL1        0.0588
     63 H           6.6567    1.8236    0.0000 H       1  UNL1        0.0588
     64 H           7.1962   -4.5946    0.0000 H       1  UNL1        0.0658
     65 H           8.5991   -2.1646    0.0000 H       1  UNL1        0.0658
     66 H           4.6123    3.5915    0.0000 H       1  UNL1        0.0964
     67 H           2.0000    0.0254    0.0000 H       1  UNL1        0.2101
     68 H           2.5369    2.3354    0.0000 H       1  UNL1        0.2100
     69 H           3.2817   -6.1653    0.0000 H       1  UNL1        0.1166
     70 H           4.0000   -6.5800    0.0000 H       1  UNL1        0.1166
     71 H           3.7434    4.4692    0.0000 H       1  UNL1        0.0622
     72 H           6.5493    4.4800    0.0000 H       1  UNL1        0.0622
     73 H           3.7372    6.0892    0.0000 H       1  UNL1        0.0618
     74 H           6.5431    6.1000    0.0000 H       1  UNL1        0.0618
     75 H          10.8872   -3.8216    0.0000 H       1  UNL1        0.0660
     76 H          11.7341   -3.5946    0.0000 H       1  UNL1        0.0660
     77 H          11.5072   -2.7477    0.0000 H       1  UNL1        0.0660
     78 H           7.4231   -5.7477    0.0000 H       1  UNL1        0.0660
     79 H           7.1962   -6.5946    0.0000 H       1  UNL1        0.0660
     80 H           8.0431   -6.8216    0.0000 H       1  UNL1        0.0660
     81 H           9.7112   -5.7846    0.0000 H       1  UNL1        0.0660
     82 H          10.3312   -6.4046    0.0000 H       1  UNL1        0.0660
     83 H          10.9512   -5.7846    0.0000 H       1  UNL1        0.0660
     84 H           5.1370    6.9046    0.0000 H       1  UNL1        0.0618
@<TRIPOS>BOND
     1    16     1    1
     2    22     1    1
     3     2    20    1
     4     2    21    1
     5     3    22    1
     6     3    27    1
     7     4    25    1
     8     4    35    1
     9     5    21    2
    10    24     6    1
    11     6    67    1
    12     7    32    1
    13     7    35    1
    14    26     8    1
    15     8    68    1
    16     9    30    1
    17     9    38    1
    18    10    31    1
    19    10    38    1
    20    11    36    1
    21    11    43    1
    22    12    37    1
    23    12    44    1
    24    13    39    1
    25    13    47    1
    26    14    15    1
    27    14    16    1
    28    14    20    1
    29    14    49    1
    30    15    17    1
    31    15    21    1
    32    15    50    1
    33    16    18    1
    34    16    51    1
    35    17    19    1
    36    17    23    1
    37    17    52    1
    38    18    19   ar
    39    18    28   ar
    40    19    29   ar
    41    20    53    1
    42    20    54    1
    43    22    24    1
    44    22    55    1
    45    23    33   ar
    46    23    34   ar
    47    24    26    1
    48    24    56    1
    49    25    26    1
    50    25    27    1
    51    25    57    1
    52    26    58    1
    53    27    32    1
    54    27    59    1
    55    28    30   ar
    56    28    60    1
    57    29    31   ar
    58    29    61    1
    59    30    31   ar
    60    32    62    1
    61    32    63    1
    62    33    37   ar
    63    33    64    1
    64    34    36   ar
    65    34    65    1
    66    35    40    1
    67    35    66    1
    68    36    39   ar
    69    37    39   ar
    70    38    69    1
    71    38    70    1
    72    40    41   ar
    73    40    42   ar
    74    41    45   ar
    75    41    71    1
    76    42    46   ar
    77    42    72    1
    78    43    75    1
    79    43    76    1
    80    43    77    1
    81    44    78    1
    82    44    79    1
    83    44    80    1
    84    45    48   ar
    85    45    73    1
    86    46    48   ar
    87    46    74    1
    88    47    81    1
    89    47    82    1
    90    47    83    1
    91    48    84    1
