@<TRIPOS>MOLECULE
IMPHY004570
 31 32 0 0 0
SMALL
GASTEIGER

@<TRIPOS>ATOM
      1 O           2.0000   -2.7500    0.0000 O.3     1  UNL1       -0.4950
      2 O           5.4641   -2.7500    0.0000 O.3     1  UNL1       -0.5066
      3 C           3.7320   -0.7500    0.0000 C.ar    1  UNL1       -0.0181
      4 C           2.8660   -1.2500    0.0000 C.ar    1  UNL1       -0.0126
      5 C           3.7320    0.2500    0.0000 C.2     1  UNL1       -0.0538
      6 C           4.5981   -1.2500    0.0000 C.ar    1  UNL1       -0.0128
      7 C           2.8660   -2.2500    0.0000 C.ar    1  UNL1        0.1241
      8 C           4.5981    1.7500    0.0000 C.ar    1  UNL1       -0.0250
      9 C           4.5981    0.7500    0.0000 C.2     1  UNL1       -0.0540
     10 C           4.5981   -2.2500    0.0000 C.ar    1  UNL1        0.1209
     11 C           3.7320   -2.7500    0.0000 C.ar    1  UNL1        0.0216
     12 C           5.4641    2.2500    0.0000 C.ar    1  UNL1       -0.0546
     13 C           3.7320    2.2500    0.0000 C.ar    1  UNL1       -0.0546
     14 C           5.4641    3.2500    0.0000 C.ar    1  UNL1       -0.0612
     15 C           3.7320    3.2500    0.0000 C.ar    1  UNL1       -0.0612
     16 C           4.5981    3.7500    0.0000 C.ar    1  UNL1       -0.0617
     17 C           2.0000   -3.7500    0.0000 C.3     1  UNL1        0.0788
     18 H           2.3291   -0.9400    0.0000 H       1  UNL1        0.0660
     19 H           3.1951    0.5600    0.0000 H       1  UNL1        0.0624
     20 H           5.1350   -0.9400    0.0000 H       1  UNL1        0.0660
     21 H           5.1350    0.4400    0.0000 H       1  UNL1        0.0624
     22 H           3.7320   -3.3700    0.0000 H       1  UNL1        0.0691
     23 H           6.0010    1.9400    0.0000 H       1  UNL1        0.0623
     24 H           3.1951    1.9400    0.0000 H       1  UNL1        0.0623
     25 H           6.0010    3.5600    0.0000 H       1  UNL1        0.0618
     26 H           3.1951    3.5600    0.0000 H       1  UNL1        0.0618
     27 H           4.5981    4.3700    0.0000 H       1  UNL1        0.0618
     28 H           5.4641   -3.3700    0.0000 H       1  UNL1        0.2921
     29 H           1.3800   -3.7500    0.0000 H       1  UNL1        0.0660
     30 H           2.0000   -4.3700    0.0000 H       1  UNL1        0.0660
     31 H           2.6200   -3.7500    0.0000 H       1  UNL1        0.0660
@<TRIPOS>BOND
     1     1     7    1
     2     1    17    1
     3     2    10    1
     4     2    28    1
     5     3     4   ar
     6     3     5    1
     7     3     6   ar
     8     4     7   ar
     9     4    18    1
    10     5     9    2
    11     5    19    1
    12     6    10   ar
    13     6    20    1
    14     7    11   ar
    15     8     9    1
    16     8    12   ar
    17     8    13   ar
    18     9    21    1
    19    10    11   ar
    20    11    22    1
    21    12    14   ar
    22    12    23    1
    23    13    15   ar
    24    13    24    1
    25    14    16   ar
    26    14    25    1
    27    15    16   ar
    28    15    26    1
    29    16    27    1
    30    17    29    1
    31    17    30    1
    32    17    31    1
