@<TRIPOS>MOLECULE
IMPHY005006
 40 42 0 0 0
SMALL
GASTEIGER

@<TRIPOS>ATOM
      1 O           6.3580   -0.4293    0.0000 O.2     1  UNL1       -0.4505
      2 O           4.5981   -1.3946    0.0000 O.3     1  UNL1       -0.4885
      3 O           2.8660   -0.3946    0.0000 O.3     1  UNL1       -0.4912
      4 O           4.5981    2.6054    0.0000 O.3     1  UNL1       -0.5058
      5 O           7.2564   -1.9154    0.0000 O.3     1  UNL1       -0.4944
      6 O           6.3465    2.6400    0.0000 O.2     1  UNL1       -0.2869
      7 C           5.4641    1.1054    0.0000 C.ar    1  UNL1        0.1091
      8 C           5.4641    0.1054    0.0000 C.ar    1  UNL1        0.1878
      9 C           7.2641    0.0846    0.0000 C.ar    1  UNL1        0.1429
     10 C           4.5981   -0.3946    0.0000 C.ar    1  UNL1        0.2051
     11 C           6.3580    1.6401    0.0000 C.ar    1  UNL1        0.1967
     12 C           4.5981    1.6054    0.0000 C.ar    1  UNL1        0.1349
     13 C           8.1282   -0.4188    0.0000 C.ar    1  UNL1        0.0590
     14 C           7.2641    1.1262    0.0000 C.ar    1  UNL1        0.0289
     15 C           3.7320    0.1054    0.0000 C.ar    1  UNL1        0.1687
     16 C           3.7320    1.1054    0.0000 C.ar    1  UNL1        0.0261
     17 C           8.1244   -1.4188    0.0000 C.ar    1  UNL1        0.1307
     18 C           8.9962    0.0779    0.0000 C.ar    1  UNL1       -0.0476
     19 C           8.9884   -1.9221    0.0000 C.ar    1  UNL1       -0.0192
     20 C           9.8602   -0.4254    0.0000 C.ar    1  UNL1       -0.0609
     21 C           9.8564   -1.4254    0.0000 C.ar    1  UNL1       -0.0583
     22 C           3.7320   -1.8946    0.0000 C.3     1  UNL1        0.0791
     23 C           2.0000    0.1054    0.0000 C.3     1  UNL1        0.0790
     24 C           7.2526   -2.9154    0.0000 C.3     1  UNL1        0.0788
     25 H           7.7998    1.4383    0.0000 H       1  UNL1        0.0693
     26 H           3.1951    1.4154    0.0000 H       1  UNL1        0.0692
     27 H           8.9985    0.6979    0.0000 H       1  UNL1        0.0626
     28 H           8.9860   -2.5421    0.0000 H       1  UNL1        0.0654
     29 H          10.3984   -0.1175    0.0000 H       1  UNL1        0.0618
     30 H          10.3921   -1.7375    0.0000 H       1  UNL1        0.0619
     31 H           4.0611    2.9154    0.0000 H       1  UNL1        0.2922
     32 H           3.4220   -1.3577    0.0000 H       1  UNL1        0.0660
     33 H           3.1951   -2.2046    0.0000 H       1  UNL1        0.0660
     34 H           4.0420   -2.4315    0.0000 H       1  UNL1        0.0660
     35 H           2.3100    0.6423    0.0000 H       1  UNL1        0.0660
     36 H           1.4631    0.4154    0.0000 H       1  UNL1        0.0660
     37 H           1.6900   -0.4315    0.0000 H       1  UNL1        0.0660
     38 H           6.6326   -2.9130    0.0000 H       1  UNL1        0.0660
     39 H           7.2502   -3.5354    0.0000 H       1  UNL1        0.0660
     40 H           7.8725   -2.9178    0.0000 H       1  UNL1        0.0660
@<TRIPOS>BOND
     1     1     8   ar
     2     1     9   ar
     3     2    10    1
     4     2    22    1
     5     3    15    1
     6     3    23    1
     7     4    12    1
     8     4    31    1
     9     5    17    1
    10     5    24    1
    11     6    11    2
    12     7     8   ar
    13     7    11   ar
    14     7    12   ar
    15     8    10   ar
    16     9    13    1
    17     9    14   ar
    18    10    15   ar
    19    11    14   ar
    20    12    16   ar
    21    13    17   ar
    22    13    18   ar
    23    14    25    1
    24    15    16   ar
    25    16    26    1
    26    17    19   ar
    27    18    20   ar
    28    18    27    1
    29    19    21   ar
    30    19    28    1
    31    20    21   ar
    32    20    29    1
    33    21    30    1
    34    22    32    1
    35    22    33    1
    36    22    34    1
    37    23    35    1
    38    23    36    1
    39    23    37    1
    40    24    38    1
    41    24    39    1
    42    24    40    1
