@<TRIPOS>MOLECULE
IMPHY008033
 58 61 0 0 0
SMALL
GASTEIGER

@<TRIPOS>ATOM
      1 O           2.5357   -2.5286    0.0000 O.3     1  UNL1       -0.3915
      2 N          10.1642    1.9852    0.0000 N.3     1  UNL1       -0.3272
      3 C           7.9288    0.5237    0.0000 C.3     1  UNL1       -0.0247
      4 C           7.9288   -0.4763    0.0000 C.3     1  UNL1       -0.0319
      5 C           7.0628   -0.9763    0.0000 C.3     1  UNL1       -0.0307
      6 C           6.1968   -0.4763    0.0000 C.3     1  UNL1       -0.0285
      7 C           8.8750    0.8284    0.0000 C.3     1  UNL1       -0.0204
      8 C           5.2868   -0.9832    0.0000 C.3     1  UNL1       -0.0078
      9 C           7.0628    1.0237    0.0000 C.3     1  UNL1       -0.0468
     10 C           8.8750   -0.7810    0.0000 C.3     1  UNL1       -0.0491
     11 C           6.1968    0.5237    0.0000 C.3     1  UNL1       -0.0486
     12 C           9.4586    0.0237    0.0000 C.3     1  UNL1       -0.0480
     13 C           7.0789   -2.0178    0.0000 C.3     1  UNL1       -0.0311
     14 C           7.9288    1.5237    0.0000 C.3     1  UNL1       -0.0590
     15 C           5.2787   -2.0248    0.0000 C.2     1  UNL1       -0.0648
     16 C           9.1857    1.7789    0.0000 C.3     1  UNL1        0.0053
     17 C           4.3599   -0.4191    0.0000 C.3     1  UNL1       -0.0413
     18 C           6.1808   -2.5456    0.0000 C.2     1  UNL1       -0.0839
     19 C           5.2945    0.0168    0.0000 C.3     1  UNL1       -0.0556
     20 C           4.3433   -2.5745    0.0000 C.3     1  UNL1       -0.0051
     21 C           3.4120   -0.9470    0.0000 C.3     1  UNL1       -0.0258
     22 C           3.4037   -2.0320    0.0000 C.3     1  UNL1        0.0590
     23 C           8.5179    2.5232    0.0000 C.3     1  UNL1       -0.0496
     24 H           8.0188   -1.3215    0.0000 H       1  UNL1        0.0309
     25 H           7.8022   -1.3956    0.0000 H       1  UNL1        0.0309
     26 H           6.9329   -0.0513    0.0000 H       1  UNL1        0.0312
     27 H           9.7148    0.9603    0.0000 H       1  UNL1        0.0321
     28 H           7.4613    1.4986    0.0000 H       1  UNL1        0.0271
     29 H           6.6643    1.4986    0.0000 H       1  UNL1        0.0271
     30 H           8.6240   -1.3480    0.0000 H       1  UNL1        0.0268
     31 H           9.4124   -1.0903    0.0000 H       1  UNL1        0.0268
     32 H           5.9847    1.1063    0.0000 H       1  UNL1        0.0268
     33 H           5.5862    0.4160    0.0000 H       1  UNL1        0.0268
     34 H           9.9195   -0.3910    0.0000 H       1  UNL1        0.0269
     35 H           9.9195    0.4384    0.0000 H       1  UNL1        0.0269
     36 H           7.2969   -2.5982    0.0000 H       1  UNL1        0.0310
     37 H           7.6880   -1.9023    0.0000 H       1  UNL1        0.0310
     38 H           8.5488    1.5237    0.0000 H       1  UNL1        0.0235
     39 H           7.9288    2.1437    0.0000 H       1  UNL1        0.0235
     40 H           7.3088    1.5237    0.0000 H       1  UNL1        0.0235
     41 H           9.3783    2.3683    0.0000 H       1  UNL1        0.0458
     42 H           4.7681    0.0476    0.0000 H       1  UNL1        0.0274
     43 H           3.9700    0.0630    0.0000 H       1  UNL1        0.0274
     44 H           6.1832   -3.1656    0.0000 H       1  UNL1        0.0572
     45 H           5.9145    0.0120    0.0000 H       1  UNL1        0.0238
     46 H           5.2993    0.6368    0.0000 H       1  UNL1        0.0238
     47 H           4.6745    0.0216    0.0000 H       1  UNL1        0.0238
     48 H           3.9460   -3.0504    0.0000 H       1  UNL1        0.0335
     49 H           4.7443   -3.0474    0.0000 H       1  UNL1        0.0335
     50 H           3.2075   -0.3617    0.0000 H       1  UNL1        0.0290
     51 H           2.8004   -1.0484    0.0000 H       1  UNL1        0.0290
     52 H           2.8686   -1.7189    0.0000 H       1  UNL1        0.0596
     53 H           8.9793    2.9373    0.0000 H       1  UNL1        0.0245
     54 H           8.1038    2.9847    0.0000 H       1  UNL1        0.0245
     55 H           8.0564    2.1092    0.0000 H       1  UNL1        0.0245
     56 H          10.3568    2.5745    0.0000 H       1  UNL1        0.1185
     57 H          10.5783    1.5237    0.0000 H       1  UNL1        0.1185
     58 H           2.0000   -2.2166    0.0000 H       1  UNL1        0.2098
@<TRIPOS>BOND
     1    22     1    1
     2     1    58    1
     3    16     2    1
     4     2    56    1
     5     2    57    1
     6     3     4    1
     7     3     7    1
     8     3     9    1
     9     3    14    1
    10     4     5    1
    11     4    10    1
    12     4    24    1
    13     5     6    1
    14     5    13    1
    15     5    25    1
    16     6     8    1
    17     6    11    1
    18     6    26    1
    19     7    12    1
    20     7    16    1
    21     7    27    1
    22     8    15    1
    23     8    17    1
    24     8    19    1
    25     9    11    1
    26     9    28    1
    27     9    29    1
    28    10    12    1
    29    10    30    1
    30    10    31    1
    31    11    32    1
    32    11    33    1
    33    12    34    1
    34    12    35    1
    35    13    18    1
    36    13    36    1
    37    13    37    1
    38    14    38    1
    39    14    39    1
    40    14    40    1
    41    15    18    2
    42    15    20    1
    43    16    23    1
    44    16    41    1
    45    17    21    1
    46    17    42    1
    47    17    43    1
    48    18    44    1
    49    19    45    1
    50    19    46    1
    51    19    47    1
    52    20    22    1
    53    20    48    1
    54    20    49    1
    55    21    22    1
    56    21    50    1
    57    21    51    1
    58    22    52    1
    59    23    53    1
    60    23    54    1
    61    23    55    1
