@<TRIPOS>MOLECULE
IMPHY002959
 50 52 0 0 0
SMALL
GASTEIGER

@<TRIPOS>ATOM
      1 CL          4.6826    0.0000    0.0000 Cl      1  UNL1        0.0000
      2 O           4.9362    4.1800    0.0000 O.2     2  UNL2       -0.4545
      3 N           8.4663    4.1559    0.0000 N.2     2  UNL2       -0.2337
      4 N           1.4061    4.1559    0.0000 N.pl3   2  UNL2       -0.3359
      5 C           4.9362    6.1800    0.0000 C.ar    2  UNL2        0.0034
      6 C           5.8022    5.6800    0.0000 C.ar    2  UNL2        0.0261
      7 C           4.0702    5.6800    0.0000 C.ar    2  UNL2        0.0258
      8 C           5.8022    4.6800    0.0000 C.ar    2  UNL2        0.1424
      9 C           4.0702    4.6800    0.0000 C.ar    2  UNL2        0.1379
     10 C           4.9362    7.1800    0.0000 C.ar    2  UNL2       -0.0165
     11 C           6.6962    6.2147    0.0000 C.ar    2  UNL2       -0.0443
     12 C           3.1762    6.2147    0.0000 C.ar    2  UNL2       -0.0487
     13 C           6.6962    4.1454    0.0000 C.ar    2  UNL2        0.0521
     14 C           3.1762    4.1454    0.0000 C.ar    2  UNL2        0.0023
     15 C           7.6022    4.6592    0.0000 C.ar    2  UNL2        0.2056
     16 C           2.2702    4.6592    0.0000 C.ar    2  UNL2        0.0327
     17 C           7.6022    5.7008    0.0000 C.ar    2  UNL2        0.0101
     18 C           2.2702    5.7008    0.0000 C.ar    2  UNL2       -0.0399
     19 C           5.8022    7.6800    0.0000 C.ar    2  UNL2       -0.0540
     20 C           4.0702    7.6800    0.0000 C.ar    2  UNL2       -0.0540
     21 C           9.3343    4.6525    0.0000 C.3     2  UNL2        0.1352
     22 C           8.4625    3.1559    0.0000 C.3     2  UNL2        0.1352
     23 C           0.5381    4.6525    0.0000 C.3     2  UNL2        0.0004
     24 C           1.4099    3.1559    0.0000 C.3     2  UNL2        0.0004
     25 C           5.8022    8.6800    0.0000 C.ar    2  UNL2       -0.0612
     26 C           4.0702    8.6800    0.0000 C.ar    2  UNL2       -0.0612
     27 C           4.9362    9.1800    0.0000 C.ar    2  UNL2       -0.0617
     28 H           6.6890    6.8346    0.0000 H       2  UNL2        0.0627
     29 H           3.1834    6.8346    0.0000 H       2  UNL2        0.0625
     30 H           6.6890    3.5254    0.0000 H       2  UNL2        0.0721
     31 H           3.1834    3.5254    0.0000 H       2  UNL2        0.0673
     32 H           8.1380    6.0129    0.0000 H       2  UNL2        0.0683
     33 H           1.7344    6.0129    0.0000 H       2  UNL2        0.0636
     34 H           6.3392    7.3700    0.0000 H       2  UNL2        0.0624
     35 H           3.5332    7.3700    0.0000 H       2  UNL2        0.0624
     36 H           9.6422    4.1144    0.0000 H       2  UNL2        0.0988
     37 H           9.8724    4.9605    0.0000 H       2  UNL2        0.0988
     38 H           9.0263    5.1907    0.0000 H       2  UNL2        0.0988
     39 H           7.8425    3.1583    0.0000 H       2  UNL2        0.0988
     40 H           8.4601    2.5359    0.0000 H       2  UNL2        0.0988
     41 H           9.0825    3.1535    0.0000 H       2  UNL2        0.0988
     42 H           0.7899    3.1535    0.0000 H       2  UNL2        0.0428
     43 H           1.4123    2.5359    0.0000 H       2  UNL2        0.0428
     44 H           2.0299    3.1583    0.0000 H       2  UNL2        0.0428
     45 H           0.8461    5.1907    0.0000 H       2  UNL2        0.0428
     46 H           0.0000    4.9605    0.0000 H       2  UNL2        0.0428
     47 H           0.2302    4.1144    0.0000 H       2  UNL2        0.0428
     48 H           6.3392    8.9900    0.0000 H       2  UNL2        0.0618
     49 H           3.5332    8.9900    0.0000 H       2  UNL2        0.0618
     50 H           4.9362    9.8000    0.0000 H       2  UNL2        0.0618
@<TRIPOS>UNITY_ATOM_ATTR
1 1
charge -1
3 1
charge 1
@<TRIPOS>BOND
     1     2     8   ar
     2     2     9   ar
     3     3    15    2
     4     3    21    1
     5     3    22    1
     6     4    16    1
     7     4    23    1
     8     4    24    1
     9     5     6   ar
    10     5     7   ar
    11     5    10    1
    12     6     8    1
    13     6    11   ar
    14     7     9   ar
    15     7    12   ar
    16     8    13   ar
    17     9    14   ar
    18    10    19   ar
    19    10    20   ar
    20    11    17   ar
    21    11    28    1
    22    12    18   ar
    23    12    29    1
    24    13    15   ar
    25    13    30    1
    26    14    16   ar
    27    14    31    1
    28    15    17   ar
    29    16    18   ar
    30    17    32    1
    31    18    33    1
    32    19    25   ar
    33    19    34    1
    34    20    26   ar
    35    20    35    1
    36    21    36    1
    37    21    37    1
    38    21    38    1
    39    22    39    1
    40    22    40    1
    41    22    41    1
    42    23    45    1
    43    23    46    1
    44    23    47    1
    45    24    42    1
    46    24    43    1
    47    24    44    1
    48    25    27   ar
    49    25    48    1
    50    26    27   ar
    51    26    49    1
    52    27    50    1
