@<TRIPOS>MOLECULE
IMPHY010517
 135 143 0 0 0
SMALL
GASTEIGER

@<TRIPOS>ATOM
      1 O           9.1562    5.5403    0.0000 O.3     1  UNL1       -0.3334
      2 O           7.3837    6.4351    0.0000 O.3     1  UNL1       -0.4292
      3 O           7.7331   -2.7038    0.0000 O.3     1  UNL1       -0.3454
      4 O          10.0205    6.2173    0.0000 O.3     1  UNL1       -0.3853
      5 O           6.3615    7.8333    0.0000 O.2     1  UNL1       -0.2505
      6 O           6.0010   -2.7038    0.0000 O.3     1  UNL1       -0.3405
      7 O           7.7331   -4.7038    0.0000 O.3     1  UNL1       -0.3378
      8 O           6.0010   -5.7038    0.0000 O.3     1  UNL1       -0.3400
      9 O           4.2690   -4.7038    0.0000 O.3     1  UNL1       -0.3865
     10 O           8.5991   -3.2038    0.0000 O.3     1  UNL1       -0.3431
     11 O           4.2690   -1.7038    0.0000 O.3     1  UNL1       -0.3924
     12 O           4.2690   -5.7038    0.0000 O.3     1  UNL1       -0.3431
     13 O           9.4651   -5.7038    0.0000 O.3     1  UNL1       -0.3841
     14 O           6.0010   -7.7038    0.0000 O.3     1  UNL1       -0.3841
     15 O          11.1972   -4.7038    0.0000 O.3     1  UNL1       -0.3864
     16 O          11.1972   -2.7038    0.0000 O.3     1  UNL1       -0.3866
     17 O           4.2690   -8.7038    0.0000 O.3     1  UNL1       -0.3864
     18 O           2.5369   -7.7038    0.0000 O.3     1  UNL1       -0.3866
     19 C           7.7624    3.4931    0.0000 C.3     1  UNL1       -0.0233
     20 C           8.6303    2.9965    0.0000 C.3     1  UNL1       -0.0298
     21 C           8.6342    1.9965    0.0000 C.3     1  UNL1       -0.0343
     22 C           7.9678    4.4657    0.0000 C.3     1  UNL1       -0.0003
     23 C           7.7701    1.4931    0.0000 C.3     1  UNL1       -0.0323
     24 C           7.7580    0.4516    0.0000 C.3     1  UNL1       -0.0260
     25 C           8.9561    4.5726    0.0000 C.3     1  UNL1        0.0671
     26 C           9.3647    3.6664    0.0000 C.3     1  UNL1       -0.0226
     27 C           6.8983    2.9898    0.0000 C.3     1  UNL1       -0.0467
     28 C           6.9021    1.9898    0.0000 C.3     1  UNL1       -0.0489
     29 C           7.5655    5.3683    0.0000 C.3     1  UNL1        0.0302
     30 C           8.6581   -0.0727    0.0000 C.3     1  UNL1       -0.0330
     31 C           9.5461    1.4931    0.0000 C.3     1  UNL1       -0.0494
     32 C           8.2985    6.0311    0.0000 C.3     1  UNL1        0.2447
     33 C           9.5581    0.4516    0.0000 C.3     1  UNL1       -0.0494
     34 C           6.8944    3.9898    0.0000 C.3     1  UNL1       -0.0590
     35 C           6.8081   -0.0727    0.0000 C.3     1  UNL1       -0.0448
     36 C           8.6706   -1.1576    0.0000 C.3     1  UNL1       -0.0232
     37 C           6.8939    0.9549    0.0000 C.3     1  UNL1       -0.0590
     38 C           6.7956   -1.1576    0.0000 C.3     1  UNL1       -0.0260
     39 C           6.5871    5.5750    0.0000 C.3     1  UNL1       -0.0560
     40 C           7.7331   -1.7038    0.0000 C.3     1  UNL1        0.0621
     41 C           9.1057    6.6213    0.0000 C.3     1  UNL1        0.1214
     42 C           8.9982    7.6155    0.0000 C.3     1  UNL1       -0.0080
     43 C           8.0835    8.0195    0.0000 C.3     1  UNL1        0.0563
     44 C           7.2762    7.4293    0.0000 C.2     1  UNL1        0.3125
     45 C           6.8671   -3.2038    0.0000 C.3     1  UNL1        0.1886
     46 C           7.9760    9.0138    0.0000 C.3     1  UNL1       -0.0522
     47 C           6.8671   -4.2038    0.0000 C.3     1  UNL1        0.1410
     48 C           6.0010   -4.7038    0.0000 C.3     1  UNL1        0.1209
     49 C           5.1350   -3.2038    0.0000 C.3     1  UNL1        0.1130
     50 C           5.1350   -4.2038    0.0000 C.3     1  UNL1        0.1123
     51 C           4.2690   -2.7038    0.0000 C.3     1  UNL1        0.0730
     52 C           8.5991   -4.2038    0.0000 C.3     1  UNL1        0.1884
     53 C           5.1350   -6.2038    0.0000 C.3     1  UNL1        0.1883
     54 C           9.4651   -4.7038    0.0000 C.3     1  UNL1        0.1341
     55 C           5.1350   -7.2038    0.0000 C.3     1  UNL1        0.1341
     56 C          10.3312   -4.2038    0.0000 C.3     1  UNL1        0.1140
     57 C           9.4651   -2.7038    0.0000 C.3     1  UNL1        0.0873
     58 C          10.3312   -3.2038    0.0000 C.3     1  UNL1        0.1095
     59 C           4.2690   -7.7038    0.0000 C.3     1  UNL1        0.1140
     60 C           3.4030   -6.2038    0.0000 C.3     1  UNL1        0.0873
     61 C           3.4030   -7.2038    0.0000 C.3     1  UNL1        0.1095
     62 C           9.4651   -1.7038    0.0000 C.3     1  UNL1       -0.0361
     63 C           2.5369   -5.7038    0.0000 C.3     1  UNL1       -0.0361
     64 H           9.4086    2.6548    0.0000 H       1  UNL1        0.0310
     65 H           9.3653    2.4300    0.0000 H       1  UNL1        0.0306
     66 H           7.1225    4.3762    0.0000 H       1  UNL1        0.0336
     67 H           8.5045    1.0653    0.0000 H       1  UNL1        0.0309
     68 H           9.8010    4.6658    0.0000 H       1  UNL1        0.0600
     69 H           9.7321    3.1670    0.0000 H       1  UNL1        0.0293
     70 H           9.9000    3.9792    0.0000 H       1  UNL1        0.0293
     71 H           6.6840    3.5716    0.0000 H       1  UNL1        0.0271
     72 H           6.2881    2.8798    0.0000 H       1  UNL1        0.0271
     73 H           6.2911    2.0951    0.0000 H       1  UNL1        0.0268
     74 H           6.6923    1.4064    0.0000 H       1  UNL1        0.0268
     75 H           7.4040    5.9669    0.0000 H       1  UNL1        0.0366
     76 H           9.3974   -0.4920    0.0000 H       1  UNL1        0.0307
     77 H          10.1581    1.3941    0.0000 H       1  UNL1        0.0268
     78 H           9.7484    2.0792    0.0000 H       1  UNL1        0.0268
     79 H           9.7739   -0.1297    0.0000 H       1  UNL1        0.0268
     80 H          10.1677    0.5647    0.0000 H       1  UNL1        0.0268
     81 H           7.2023    4.5279    0.0000 H       1  UNL1        0.0235
     82 H           6.3563    4.2977    0.0000 H       1  UNL1        0.0235
     83 H           6.5865    3.4517    0.0000 H       1  UNL1        0.0235
     84 H           6.6058    0.5134    0.0000 H       1  UNL1        0.0271
     85 H           6.1961   -0.1717    0.0000 H       1  UNL1        0.0271
     86 H           8.8864   -1.7389    0.0000 H       1  UNL1        0.0293
     87 H           9.2802   -1.0445    0.0000 H       1  UNL1        0.0293
     88 H           7.2060    1.4906    0.0000 H       1  UNL1        0.0235
     89 H           6.3582    1.2670    0.0000 H       1  UNL1        0.0235
     90 H           6.5818    0.4192    0.0000 H       1  UNL1        0.0235
     91 H           6.1860   -1.0445    0.0000 H       1  UNL1        0.0290
     92 H           6.5798   -1.7389    0.0000 H       1  UNL1        0.0290
     93 H           6.7152    6.1816    0.0000 H       1  UNL1        0.0235
     94 H           5.9805    5.7032    0.0000 H       1  UNL1        0.0235
     95 H           6.4590    4.9684    0.0000 H       1  UNL1        0.0235
     96 H           8.2706   -2.0127    0.0000 H       1  UNL1        0.0597
     97 H           9.1724    6.0049    0.0000 H       1  UNL1        0.0659
     98 H           9.6168    7.5741    0.0000 H       1  UNL1        0.0300
     99 H           9.1464    8.2176    0.0000 H       1  UNL1        0.0300
    100 H           8.5840    8.3855    0.0000 H       1  UNL1        0.0411
    101 H          10.5210    6.5832    0.0000 H       1  UNL1        0.2101
    102 H           7.4040   -3.5138    0.0000 H       1  UNL1        0.0938
    103 H           8.5924    9.0804    0.0000 H       1  UNL1        0.0238
    104 H           7.9093    9.6302    0.0000 H       1  UNL1        0.0238
    105 H           7.3596    8.9471    0.0000 H       1  UNL1        0.0238
    106 H           6.8671   -4.8238    0.0000 H       1  UNL1        0.0675
    107 H           5.4641   -5.0138    0.0000 H       1  UNL1        0.0651
    108 H           5.1350   -2.5838    0.0000 H       1  UNL1        0.0647
    109 H           4.5981   -3.8938    0.0000 H       1  UNL1        0.0647
    110 H           3.6584   -2.5961    0.0000 H       1  UNL1        0.0584
    111 H           4.0569   -3.2864    0.0000 H       1  UNL1        0.0584
    112 H           8.5991   -4.8238    0.0000 H       1  UNL1        0.0938
    113 H           3.7320   -4.3938    0.0000 H       1  UNL1        0.2100
    114 H           5.1350   -5.5838    0.0000 H       1  UNL1        0.0938
    115 H          10.0021   -5.0138    0.0000 H       1  UNL1        0.0671
    116 H           3.7320   -1.3938    0.0000 H       1  UNL1        0.2095
    117 H           5.1350   -7.8238    0.0000 H       1  UNL1        0.0671
    118 H          10.8681   -3.8938    0.0000 H       1  UNL1        0.0648
    119 H           8.9282   -2.3938    0.0000 H       1  UNL1        0.0621
    120 H          10.3312   -2.5838    0.0000 H       1  UNL1        0.0646
    121 H           3.7320   -8.0138    0.0000 H       1  UNL1        0.0648
    122 H           3.4030   -5.5838    0.0000 H       1  UNL1        0.0621
    123 H          10.0021   -6.0138    0.0000 H       1  UNL1        0.2101
    124 H           2.8660   -6.8938    0.0000 H       1  UNL1        0.0646
    125 H          10.0851   -1.7038    0.0000 H       1  UNL1        0.0255
    126 H           9.4651   -1.0838    0.0000 H       1  UNL1        0.0255
    127 H           8.8451   -1.7038    0.0000 H       1  UNL1        0.0255
    128 H           6.0010   -8.3238    0.0000 H       1  UNL1        0.2101
    129 H          11.7341   -4.3938    0.0000 H       1  UNL1        0.2100
    130 H          11.1972   -2.0838    0.0000 H       1  UNL1        0.2100
    131 H           2.8469   -5.1668    0.0000 H       1  UNL1        0.0255
    132 H           2.0000   -5.3938    0.0000 H       1  UNL1        0.0255
    133 H           2.2269   -6.2407    0.0000 H       1  UNL1        0.0255
    134 H           3.7320   -9.0138    0.0000 H       1  UNL1        0.2100
    135 H           2.0000   -7.3938    0.0000 H       1  UNL1        0.2100
@<TRIPOS>BOND
     1     1    25    1
     2     1    32    1
     3     2    32    1
     4     2    44    1
     5    40     3    1
     6    45     3    1
     7    41     4    1
     8     4   101    1
     9     5    44    2
    10     6    45    1
    11     6    49    1
    12    47     7    1
    13    52     7    1
    14    48     8    1
    15    53     8    1
    16    50     9    1
    17     9   113    1
    18    10    52    1
    19    10    57    1
    20    11    51    1
    21    11   116    1
    22    12    53    1
    23    12    60    1
    24    54    13    1
    25    13   123    1
    26    55    14    1
    27    14   128    1
    28    56    15    1
    29    15   129    1
    30    58    16    1
    31    16   130    1
    32    59    17    1
    33    17   134    1
    34    61    18    1
    35    18   135    1
    36    19    20    1
    37    19    22    1
    38    19    27    1
    39    19    34    1
    40    20    21    1
    41    20    26    1
    42    20    64    1
    43    21    23    1
    44    21    31    1
    45    21    65    1
    46    22    25    1
    47    22    29    1
    48    22    66    1
    49    23    24    1
    50    23    28    1
    51    23    67    1
    52    24    30    1
    53    24    35    1
    54    24    37    1
    55    25    26    1
    56    25    68    1
    57    26    69    1
    58    26    70    1
    59    27    28    1
    60    27    71    1
    61    27    72    1
    62    28    73    1
    63    28    74    1
    64    29    32    1
    65    29    39    1
    66    29    75    1
    67    30    33    1
    68    30    36    1
    69    30    76    1
    70    31    33    1
    71    31    77    1
    72    31    78    1
    73    32    41    1
    74    33    79    1
    75    33    80    1
    76    34    81    1
    77    34    82    1
    78    34    83    1
    79    35    38    1
    80    35    84    1
    81    35    85    1
    82    36    40    1
    83    36    86    1
    84    36    87    1
    85    37    88    1
    86    37    89    1
    87    37    90    1
    88    38    40    1
    89    38    91    1
    90    38    92    1
    91    39    93    1
    92    39    94    1
    93    39    95    1
    94    40    96    1
    95    41    42    1
    96    41    97    1
    97    42    43    1
    98    42    98    1
    99    42    99    1
   100    43    44    1
   101    43    46    1
   102    43   100    1
   103    45    47    1
   104    45   102    1
   105    46   103    1
   106    46   104    1
   107    46   105    1
   108    47    48    1
   109    47   106    1
   110    48    50    1
   111    48   107    1
   112    49    50    1
   113    49    51    1
   114    49   108    1
   115    50   109    1
   116    51   110    1
   117    51   111    1
   118    52    54    1
   119    52   112    1
   120    53    55    1
   121    53   114    1
   122    54    56    1
   123    54   115    1
   124    55    59    1
   125    55   117    1
   126    56    58    1
   127    56   118    1
   128    57    58    1
   129    57    62    1
   130    57   119    1
   131    58   120    1
   132    59    61    1
   133    59   121    1
   134    60    61    1
   135    60    63    1
   136    60   122    1
   137    61   124    1
   138    62   125    1
   139    62   126    1
   140    62   127    1
   141    63   131    1
   142    63   132    1
   143    63   133    1
