@<TRIPOS>MOLECULE
IMPHY007299
 27 27 0 0 0
SMALL
GASTEIGER

@<TRIPOS>ATOM
      1 O           2.0000   -2.5000    0.0000 O.2     1  UNL1       -0.2960
      2 C           2.8660    1.0000    0.0000 C.3     1  UNL1       -0.0350
      3 C           2.8660    2.0000    0.0000 C.3     1  UNL1       -0.0436
      4 C           2.0000    0.5000    0.0000 C.3     1  UNL1       -0.0456
      5 C           3.7320    0.5000    0.0000 C.3     1  UNL1       -0.0310
      6 C           2.0000   -0.5000    0.0000 C.3     1  UNL1       -0.0247
      7 C           3.7320   -0.5000    0.0000 C.2     1  UNL1       -0.0775
      8 C           2.8660   -1.0000    0.0000 C.2     1  UNL1       -0.0121
      9 C           3.7320    2.5000    0.0000 C.3     1  UNL1       -0.0624
     10 C           2.0000    2.5000    0.0000 C.3     1  UNL1       -0.0624
     11 C           2.8660   -2.0000    0.0000 C.2     1  UNL1        0.1460
     12 H           3.4030    1.3100    0.0000 H       1  UNL1        0.0306
     13 H           2.8660    2.6200    0.0000 H       1  UNL1        0.0298
     14 H           1.7880    1.0826    0.0000 H       1  UNL1        0.0271
     15 H           1.3894    0.3923    0.0000 H       1  UNL1        0.0271
     16 H           4.3426    0.3923    0.0000 H       1  UNL1        0.0310
     17 H           3.9441    1.0826    0.0000 H       1  UNL1        0.0310
     18 H           1.3894   -0.3923    0.0000 H       1  UNL1        0.0314
     19 H           1.7880   -1.0826    0.0000 H       1  UNL1        0.0314
     20 H           4.2690   -0.8100    0.0000 H       1  UNL1        0.0576
     21 H           4.0420    1.9631    0.0000 H       1  UNL1        0.0232
     22 H           4.2690    2.8100    0.0000 H       1  UNL1        0.0232
     23 H           3.4220    3.0369    0.0000 H       1  UNL1        0.0232
     24 H           2.3100    3.0369    0.0000 H       1  UNL1        0.0232
     25 H           1.4631    2.8100    0.0000 H       1  UNL1        0.0232
     26 H           1.6900    1.9631    0.0000 H       1  UNL1        0.0232
     27 H           3.4030   -2.3100    0.0000 H       1  UNL1        0.1078
@<TRIPOS>BOND
     1     1    11    2
     2     2     3    1
     3     2     4    1
     4     2     5    1
     5     2    12    1
     6     3     9    1
     7     3    10    1
     8     3    13    1
     9     4     6    1
    10     4    14    1
    11     4    15    1
    12     5     7    1
    13     5    16    1
    14     5    17    1
    15     6     8    1
    16     6    18    1
    17     6    19    1
    18     7     8    2
    19     7    20    1
    20     8    11    1
    21     9    21    1
    22     9    22    1
    23     9    23    1
    24    10    24    1
    25    10    25    1
    26    10    26    1
    27    11    27    1
