@<TRIPOS>MOLECULE
IMPHY006796
 52 53 0 0 0
SMALL
GASTEIGER

@<TRIPOS>ATOM
      1 O           8.0901   -0.8069    0.0000 O.2     1  UNL1       -0.4216
      2 O           6.3301    2.2278    0.0000 O.3     1  UNL1       -0.5052
      3 O           4.5981   -0.7723    0.0000 O.3     1  UNL1       -0.5055
      4 O           4.5981    2.2278    0.0000 O.2     1  UNL1       -0.2918
      5 O           9.8602   -0.7964    0.0000 O.2     1  UNL1       -0.2452
      6 C           7.1962    0.7277    0.0000 C.ar    1  UNL1        0.0633
      7 C           7.1962   -0.2723    0.0000 C.ar    1  UNL1        0.1498
      8 C           6.3301   -0.7723    0.0000 C.ar    1  UNL1        0.0416
      9 C           8.0901    1.2624    0.0000 C.ar    1  UNL1       -0.0264
     10 C           5.4641    0.7277    0.0000 C.ar    1  UNL1        0.1011
     11 C           6.3301    1.2277    0.0000 C.ar    1  UNL1        0.1418
     12 C           8.0785    2.2623    0.0000 C.3     1  UNL1       -0.0269
     13 C           5.4641   -0.2723    0.0000 C.ar    1  UNL1        0.1378
     14 C           6.3301   -1.7722    0.0000 C.3     1  UNL1       -0.0022
     15 C           8.9387    2.7723    0.0000 C.3     1  UNL1       -0.0519
     16 C           8.9962    0.7486    0.0000 C.ar    1  UNL1        0.0269
     17 C           4.5981    1.2277    0.0000 C.2     1  UNL1        0.1702
     18 C           3.7320    0.7277    0.0000 C.3     1  UNL1        0.0105
     19 C           8.9962   -0.2931    0.0000 C.ar    1  UNL1        0.3375
     20 C           5.4641   -2.2722    0.0000 C.2     1  UNL1       -0.0807
     21 C           2.8660    1.2277    0.0000 C.3     1  UNL1       -0.0489
     22 C           8.9271    3.7722    0.0000 C.3     1  UNL1       -0.0650
     23 C           5.4641   -3.2722    0.0000 C.2     1  UNL1       -0.0793
     24 C           2.0000    0.7277    0.0000 C.3     1  UNL1       -0.0649
     25 C           4.5981   -3.7722    0.0000 C.3     1  UNL1       -0.0440
     26 C           6.3301   -3.7722    0.0000 C.3     1  UNL1       -0.0440
     27 H           7.8598    2.8425    0.0000 H       1  UNL1        0.0313
     28 H           7.4692    2.1476    0.0000 H       1  UNL1        0.0313
     29 H           6.5422   -2.3549    0.0000 H       1  UNL1        0.0358
     30 H           6.9407   -1.6646    0.0000 H       1  UNL1        0.0358
     31 H           9.1575    2.1922    0.0000 H       1  UNL1        0.0266
     32 H           9.5480    2.8870    0.0000 H       1  UNL1        0.0266
     33 H           9.5319    1.0606    0.0000 H       1  UNL1        0.0692
     34 H           3.3335    0.2528    0.0000 H       1  UNL1        0.0345
     35 H           4.1306    0.2528    0.0000 H       1  UNL1        0.0345
     36 H           4.9272   -1.9622    0.0000 H       1  UNL1        0.0575
     37 H           3.2646    1.7027    0.0000 H       1  UNL1        0.0267
     38 H           2.4675    1.7027    0.0000 H       1  UNL1        0.0267
     39 H           9.5471    3.7794    0.0000 H       1  UNL1        0.0230
     40 H           8.9200    4.3922    0.0000 H       1  UNL1        0.0230
     41 H           8.3072    3.7651    0.0000 H       1  UNL1        0.0230
     42 H           5.7932    2.5378    0.0000 H       1  UNL1        0.2922
     43 H           4.5981   -1.3922    0.0000 H       1  UNL1        0.2922
     44 H           1.6900    1.2647    0.0000 H       1  UNL1        0.0230
     45 H           1.4631    0.4177    0.0000 H       1  UNL1        0.0230
     46 H           2.3100    0.1908    0.0000 H       1  UNL1        0.0230
     47 H           4.2881   -3.2353    0.0000 H       1  UNL1        0.0274
     48 H           4.0611   -4.0822    0.0000 H       1  UNL1        0.0274
     49 H           4.9081   -4.3092    0.0000 H       1  UNL1        0.0274
     50 H           6.0201   -4.3092    0.0000 H       1  UNL1        0.0274
     51 H           6.8671   -4.0822    0.0000 H       1  UNL1        0.0274
     52 H           6.6401   -3.2353    0.0000 H       1  UNL1        0.0274
@<TRIPOS>BOND
     1     1     7   ar
     2     1    19   ar
     3     2    11    1
     4     2    42    1
     5     3    13    1
     6     3    43    1
     7     4    17    2
     8     5    19    2
     9     6     7   ar
    10     6     9   ar
    11     6    11   ar
    12     7     8   ar
    13     8    13   ar
    14     8    14    1
    15     9    12    1
    16     9    16   ar
    17    10    11   ar
    18    10    13   ar
    19    10    17    1
    20    12    15    1
    21    12    27    1
    22    12    28    1
    23    14    20    1
    24    14    29    1
    25    14    30    1
    26    15    22    1
    27    15    31    1
    28    15    32    1
    29    16    19   ar
    30    16    33    1
    31    17    18    1
    32    18    21    1
    33    18    34    1
    34    18    35    1
    35    20    23    2
    36    20    36    1
    37    21    24    1
    38    21    37    1
    39    21    38    1
    40    22    39    1
    41    22    40    1
    42    22    41    1
    43    23    25    1
    44    23    26    1
    45    24    44    1
    46    24    45    1
    47    24    46    1
    48    25    47    1
    49    25    48    1
    50    25    49    1
    51    26    50    1
    52    26    51    1
    53    26    52    1
