@<TRIPOS>MOLECULE
IMPHY012182
 22 22 0 0 0
SMALL
GASTEIGER

@<TRIPOS>ATOM
      1 O           3.3660   -0.9330    0.0000 O.3     1  UNL1       -0.3653
      2 C           2.8660   -0.0670    0.0000 C.3     1  UNL1        0.0904
      3 C           3.8660   -0.0670    0.0000 C.3     1  UNL1        0.0878
      4 C           4.7320    0.4330    0.0000 C.3     1  UNL1       -0.0241
      5 C           2.8660    0.9330    0.0000 C.3     1  UNL1       -0.0336
      6 C           2.0000   -0.5670    0.0000 C.3     1  UNL1       -0.0336
      7 C           5.5981   -0.0670    0.0000 C.3     1  UNL1       -0.0535
      8 C           6.4641    0.4330    0.0000 C.3     1  UNL1       -0.0652
      9 H           4.3044   -0.5054    0.0000 H       1  UNL1        0.0625
     10 H           5.1306    0.9080    0.0000 H       1  UNL1        0.0291
     11 H           4.3335    0.9080    0.0000 H       1  UNL1        0.0291
     12 H           3.4860    0.9330    0.0000 H       1  UNL1        0.0258
     13 H           2.8660    1.5530    0.0000 H       1  UNL1        0.0258
     14 H           2.2460    0.9330    0.0000 H       1  UNL1        0.0258
     15 H           1.6900   -0.0301    0.0000 H       1  UNL1        0.0258
     16 H           1.4631   -0.8770    0.0000 H       1  UNL1        0.0258
     17 H           2.3100   -1.1039    0.0000 H       1  UNL1        0.0258
     18 H           5.1996   -0.5419    0.0000 H       1  UNL1        0.0263
     19 H           5.9966   -0.5419    0.0000 H       1  UNL1        0.0263
     20 H           6.7741   -0.1039    0.0000 H       1  UNL1        0.0230
     21 H           7.0010    0.7430    0.0000 H       1  UNL1        0.0230
     22 H           6.1541    0.9699    0.0000 H       1  UNL1        0.0230
@<TRIPOS>BOND
     1     1     2    1
     2     1     3    1
     3     2     3    1
     4     2     5    1
     5     2     6    1
     6     3     4    1
     7     3     9    1
     8     4     7    1
     9     4    10    1
    10     4    11    1
    11     5    12    1
    12     5    13    1
    13     5    14    1
    14     6    15    1
    15     6    16    1
    16     6    17    1
    17     7     8    1
    18     7    18    1
    19     7    19    1
    20     8    20    1
    21     8    21    1
    22     8    22    1
