@<TRIPOS>MOLECULE
IMPHY014340
 29 29 0 0 0
SMALL
GASTEIGER

@<TRIPOS>ATOM
      1 O           2.8660    1.2500    0.0000 O.3     1  UNL1       -0.4784
      2 N           4.5981   -0.7500    0.0000 N.ar    1  UNL1       -0.2497
      3 N           4.5981    1.2500    0.0000 N.ar    1  UNL1       -0.2180
      4 C           2.8660   -0.7500    0.0000 C.3     1  UNL1        0.0034
      5 C           2.8660   -1.7500    0.0000 C.3     1  UNL1       -0.0477
      6 C           3.7320   -0.2500    0.0000 C.ar    1  UNL1        0.1056
      7 C           2.0000   -0.2500    0.0000 C.3     1  UNL1       -0.0568
      8 C           2.0000   -2.2500    0.0000 C.3     1  UNL1       -0.0647
      9 C           3.7320    0.7500    0.0000 C.ar    1  UNL1        0.2367
     10 C           5.4641   -0.2500    0.0000 C.ar    1  UNL1        0.0568
     11 C           5.4641    0.7500    0.0000 C.ar    1  UNL1        0.0524
     12 C           6.3301   -0.7500    0.0000 C.3     1  UNL1       -0.0209
     13 C           2.8660    2.2500    0.0000 C.3     1  UNL1        0.0805
     14 H           2.8660   -0.1300    0.0000 H       1  UNL1        0.0363
     15 H           3.0781   -2.3326    0.0000 H       1  UNL1        0.0269
     16 H           3.4766   -1.6423    0.0000 H       1  UNL1        0.0269
     17 H           2.3100    0.2869    0.0000 H       1  UNL1        0.0236
     18 H           1.4631    0.0600    0.0000 H       1  UNL1        0.0236
     19 H           1.6900   -0.7869    0.0000 H       1  UNL1        0.0236
     20 H           1.6900   -1.7131    0.0000 H       1  UNL1        0.0230
     21 H           1.4631   -2.5600    0.0000 H       1  UNL1        0.0230
     22 H           2.3100   -2.7869    0.0000 H       1  UNL1        0.0230
     23 H           6.0010    1.0600    0.0000 H       1  UNL1        0.0849
     24 H           6.0201   -1.2869    0.0000 H       1  UNL1        0.0293
     25 H           6.8671   -1.0600    0.0000 H       1  UNL1        0.0293
     26 H           6.6401   -0.2131    0.0000 H       1  UNL1        0.0293
     27 H           3.4860    2.2500    0.0000 H       1  UNL1        0.0660
     28 H           2.8660    2.8700    0.0000 H       1  UNL1        0.0660
     29 H           2.2460    2.2500    0.0000 H       1  UNL1        0.0660
@<TRIPOS>BOND
     1     1     9    1
     2     1    13    1
     3     2     6   ar
     4     2    10   ar
     5     3     9   ar
     6     3    11   ar
     7     4     5    1
     8     4     6    1
     9     4     7    1
    10     4    14    1
    11     5     8    1
    12     5    15    1
    13     5    16    1
    14     6     9   ar
    15     7    17    1
    16     7    18    1
    17     7    19    1
    18     8    20    1
    19     8    21    1
    20     8    22    1
    21    10    11   ar
    22    10    12    1
    23    11    23    1
    24    12    24    1
    25    12    25    1
    26    12    26    1
    27    13    27    1
    28    13    28    1
    29    13    29    1
