@<TRIPOS>MOLECULE
IMPHY014259
 39 40 0 0 0
SMALL
GASTEIGER

@<TRIPOS>ATOM
      1 O           4.7320   -2.4400    0.0000 O.3     1  UNL1       -0.4773
      2 O           3.0000   -2.4400    0.0000 O.2     1  UNL1       -0.2455
      3 C           3.8660    1.0600    0.0000 C.3     1  UNL1        0.0003
      4 C           3.0000    1.5600    0.0000 C.3     1  UNL1       -0.0253
      5 C           3.0000    2.5600    0.0000 C.3     1  UNL1       -0.0468
      6 C           4.7320    0.5600    0.0000 C.3     1  UNL1       -0.0387
      7 C           4.7320    1.5600    0.0000 C.2     1  UNL1       -0.0696
      8 C           3.0000    0.5600    0.0000 C.3     1  UNL1       -0.0241
      9 C           3.8660    3.0600    0.0000 C.3     1  UNL1       -0.0488
     10 C           4.7320    2.5600    0.0000 C.3     1  UNL1       -0.0314
     11 C           2.0000    1.5600    0.0000 C.3     1  UNL1       -0.0590
     12 C           2.2340    0.9172    0.0000 C.3     1  UNL1       -0.0590
     13 C           4.7320   -0.4400    0.0000 C.3     1  UNL1       -0.0204
     14 C           3.0000   -0.4400    0.0000 C.2     1  UNL1       -0.0732
     15 C           3.8660   -0.9400    0.0000 C.2     1  UNL1        0.0326
     16 C           5.5981    1.0600    0.0000 C.2     1  UNL1       -0.0989
     17 C           3.8660   -1.9400    0.0000 C.2     1  UNL1        0.3325
     18 H           2.7880    3.1426    0.0000 H       1  UNL1        0.0271
     19 H           2.3894    2.4523    0.0000 H       1  UNL1        0.0271
     20 H           5.3426    0.4523    0.0000 H       1  UNL1        0.0277
     21 H           4.9441    1.1426    0.0000 H       1  UNL1        0.0277
     22 H           2.7880    1.1426    0.0000 H       1  UNL1        0.0316
     23 H           2.3894    0.4523    0.0000 H       1  UNL1        0.0316
     24 H           4.2646    3.5350    0.0000 H       1  UNL1        0.0268
     25 H           3.4675    3.5350    0.0000 H       1  UNL1        0.0268
     26 H           5.3426    2.4523    0.0000 H       1  UNL1        0.0310
     27 H           4.9441    3.1426    0.0000 H       1  UNL1        0.0310
     28 H           2.0000    2.1800    0.0000 H       1  UNL1        0.0235
     29 H           1.3800    1.5600    0.0000 H       1  UNL1        0.0235
     30 H           2.0000    0.9400    0.0000 H       1  UNL1        0.0235
     31 H           1.8354    1.3921    0.0000 H       1  UNL1        0.0235
     32 H           1.7590    0.5186    0.0000 H       1  UNL1        0.0235
     33 H           2.6325    0.4423    0.0000 H       1  UNL1        0.0235
     34 H           4.9441   -1.0226    0.0000 H       1  UNL1        0.0316
     35 H           5.3426   -0.3323    0.0000 H       1  UNL1        0.0316
     36 H           2.4631   -0.7500    0.0000 H       1  UNL1        0.0577
     37 H           5.5981    0.4400    0.0000 H       1  UNL1        0.0535
     38 H           6.1350    1.3700    0.0000 H       1  UNL1        0.0535
     39 H           4.7320   -3.0600    0.0000 H       1  UNL1        0.2954
@<TRIPOS>BOND
     1     1    17    1
     2     1    39    1
     3     2    17    2
     4     3     4    1
     5     3     6    1
     6     3     7    1
     7     3     8    1
     8     4     5    1
     9     4    11    1
    10     4    12    1
    11     5     9    1
    12     5    18    1
    13     5    19    1
    14     6    13    1
    15     6    20    1
    16     6    21    1
    17     7    10    1
    18     7    16    2
    19     8    14    1
    20     8    22    1
    21     8    23    1
    22     9    10    1
    23     9    24    1
    24     9    25    1
    25    10    26    1
    26    10    27    1
    27    11    28    1
    28    11    29    1
    29    11    30    1
    30    12    31    1
    31    12    32    1
    32    12    33    1
    33    13    15    1
    34    13    34    1
    35    13    35    1
    36    14    15    2
    37    14    36    1
    38    15    17    1
    39    16    37    1
    40    16    38    1
