@<TRIPOS>MOLECULE
IMPHY012985
 41 44 0 0 0
SMALL
GASTEIGER

@<TRIPOS>ATOM
      1 O           2.1763   -0.6499    0.0000 O.3     1  UNL1       -0.3649
      2 O           6.0567    0.7032    0.0000 O.3     1  UNL1       -0.3657
      3 O           6.2260    2.1218    0.0000 O.3     1  UNL1       -0.3910
      4 O           4.7440   -2.3740    0.0000 O.3     1  UNL1       -0.3943
      5 C           4.2823    0.0484    0.0000 C.3     1  UNL1        0.0379
      6 C           2.8834    0.0572    0.0000 C.3     1  UNL1        0.1271
      7 C           5.5033   -0.8172    0.0000 C.3     1  UNL1        0.0344
      8 C           4.0235    1.0144    0.0000 C.3     1  UNL1        0.0935
      9 C           5.2601    1.8630    0.0000 C.3     1  UNL1        0.0665
     10 C           1.9174    0.3161    0.0000 C.3     1  UNL1        0.0807
     11 C           4.3941    2.3630    0.0000 C.3     1  UNL1        0.0030
     12 C           6.3324   -0.2580    0.0000 C.3     1  UNL1        0.0859
     13 C           4.0234   -0.9175    0.0000 C.3     1  UNL1       -0.0537
     14 C           5.5600   -1.8573    0.0000 C.3     1  UNL1       -0.0382
     15 C           4.6743   -1.3764    0.0000 C.3     1  UNL1        0.0532
     16 C           7.2755   -0.7002    0.0000 C.2     1  UNL1       -0.0560
     17 C           6.4926   -2.3212    0.0000 C.3     1  UNL1       -0.0312
     18 C           7.3562   -1.7387    0.0000 C.2     1  UNL1       -0.0741
     19 C           8.2567   -2.1736    0.0000 C.3     1  UNL1       -0.0437
     20 H           3.8035    1.8354    0.0000 H       1  UNL1        0.0627
     21 H           5.3410    2.4777    0.0000 H       1  UNL1        0.0601
     22 H           1.2998    0.2620    0.0000 H       1  UNL1        0.0590
     23 H           1.9715    0.9337    0.0000 H       1  UNL1        0.0590
     24 H           3.8124    2.5775    0.0000 H       1  UNL1        0.0316
     25 H           4.6573    2.9244    0.0000 H       1  UNL1        0.0316
     26 H           7.0370    0.2173    0.0000 H       1  UNL1        0.0647
     27 H           4.6223   -1.0780    0.0000 H       1  UNL1        0.0237
     28 H           3.8629   -1.5163    0.0000 H       1  UNL1        0.0237
     29 H           3.4246   -0.7570    0.0000 H       1  UNL1        0.0237
     30 H           5.3830   -2.4515    0.0000 H       1  UNL1        0.0275
     31 H           4.9442   -1.7846    0.0000 H       1  UNL1        0.0275
     32 H           4.0727   -1.5264    0.0000 H       1  UNL1        0.0564
     33 H           4.4221   -0.8100    0.0000 H       1  UNL1        0.0564
     34 H           7.7855   -0.3476    0.0000 H       1  UNL1        0.0597
     35 H           6.9222   -2.7682    0.0000 H       1  UNL1        0.0310
     36 H           6.1256   -2.8209    0.0000 H       1  UNL1        0.0310
     37 H           6.3865    2.7207    0.0000 H       1  UNL1        0.2098
     38 H           4.2300   -2.7207    0.0000 H       1  UNL1        0.2094
     39 H           8.5263   -1.6153    0.0000 H       1  UNL1        0.0274
     40 H           8.8150   -2.4432    0.0000 H       1  UNL1        0.0274
     41 H           7.9870   -2.7319    0.0000 H       1  UNL1        0.0274
@<TRIPOS>BOND
     1     6     1    1
     2     1    10    1
     3     2     8    1
     4     2    12    1
     5     9     3    1
     6     3    37    1
     7     4    15    1
     8     4    38    1
     9     5     6    1
    10     5     7    1
    11     5     9    1
    12     5    13    1
    13     6     8    1
    14     6    10    1
    15     7    12    1
    16     7    14    1
    17     7    15    1
    18     8    11    1
    19     8    20    1
    20     9    11    1
    21     9    21    1
    22    10    22    1
    23    10    23    1
    24    11    24    1
    25    11    25    1
    26    12    16    1
    27    12    26    1
    28    13    27    1
    29    13    28    1
    30    13    29    1
    31    14    17    1
    32    14    30    1
    33    14    31    1
    34    15    32    1
    35    15    33    1
    36    16    18    2
    37    16    34    1
    38    17    18    1
    39    17    35    1
    40    17    36    1
    41    18    19    1
    42    19    39    1
    43    19    40    1
    44    19    41    1
