@<TRIPOS>MOLECULE
IMPHY014021
 58 60 0 0 0
SMALL
GASTEIGER

@<TRIPOS>ATOM
      1 CL          4.2092    0.0000    0.0000 Cl      1  UNL1       -0.1454
      2 O           4.8934    7.2117    0.0000 O.2     2  UNL2       -0.2744
      3 O           8.2873    5.4915    0.0000 O.3     2  UNL2       -0.4646
      4 O           7.9207    7.1843    0.0000 O.2     2  UNL2       -0.5021
      5 O           7.0046    4.3276    0.0000 O.2     2  UNL2       -0.2452
      6 N           3.6333    5.3941    0.0000 N.3     2  UNL2       -0.2977
      7 N           3.6333    8.4718    0.0000 N.am    2  UNL2       -0.2845
      8 C           3.9423    6.3452    0.0000 C.3     2  UNL2        0.0290
      9 C           3.1333    6.9329    0.0000 C.3     2  UNL2        0.0904
     10 C           4.9577    6.5774    0.0000 C.3     2  UNL2       -0.0286
     11 C           2.3243    6.3452    0.0000 C.3     2  UNL2       -0.0206
     12 C           5.6607    5.8087    0.0000 C.3     2  UNL2       -0.0008
     13 C           5.3388    4.8181    0.0000 C.3     2  UNL2       -0.0213
     14 C           2.6333    5.3941    0.0000 C.3     2  UNL2        0.0005
     15 C           4.3183    4.6094    0.0000 C.3     2  UNL2        0.0026
     16 C           2.3243    7.5207    0.0000 C.ar    2  UNL2       -0.0097
     17 C           3.9423    7.5207    0.0000 C.2     2  UNL2        0.2293
     18 C           6.0050    4.0723    0.0000 C.3     2  UNL2       -0.0513
     19 C           2.6333    8.4718    0.0000 C.ar    2  UNL2        0.0376
     20 C           6.6380    6.0204    0.0000 C.2     2  UNL2        0.0740
     21 C           1.3089    7.2885    0.0000 C.ar    2  UNL2       -0.0558
     22 C           5.6924    3.1225    0.0000 C.3     2  UNL2       -0.0650
     23 C           1.9483    9.2565    0.0000 C.ar    2  UNL2       -0.0402
     24 C           7.3100    5.2798    0.0000 C.2     2  UNL2        0.3381
     25 C           6.9434    6.9726    0.0000 C.2     2  UNL2        0.0943
     26 C           0.6060    8.0572    0.0000 C.ar    2  UNL2       -0.0614
     27 C           0.9278    9.0478    0.0000 C.ar    2  UNL2       -0.0600
     28 C           8.9593    4.7509    0.0000 C.3     2  UNL2        0.0820
     29 C           8.2260    8.1366    0.0000 C.3     2  UNL2        0.0780
     30 H           4.0666    6.9526    0.0000 H       2  UNL2        0.0476
     31 H           5.4801    6.9113    0.0000 H       2  UNL2        0.0287
     32 H           4.7181    7.1492    0.0000 H       2  UNL2        0.0287
     33 H           2.0143    6.8821    0.0000 H       2  UNL2        0.0291
     34 H           1.7579    6.0930    0.0000 H       2  UNL2        0.0291
     35 H           5.8488    6.3995    0.0000 H       2  UNL2        0.0356
     36 H           5.9455    4.9458    0.0000 H       2  UNL2        0.0319
     37 H           2.0269    5.2652    0.0000 H       2  UNL2        0.0427
     38 H           2.6981    4.7775    0.0000 H       2  UNL2        0.0427
     39 H           3.7883    4.2876    0.0000 H       2  UNL2        0.0429
     40 H           4.5446    4.0322    0.0000 H       2  UNL2        0.0429
     41 H           6.5514    3.7792    0.0000 H       2  UNL2        0.0266
     42 H           6.3886    4.5594    0.0000 H       2  UNL2        0.0266
     43 H           3.9977    8.9734    0.0000 H       2  UNL2        0.1548
     44 H           1.1241    6.6966    0.0000 H       2  UNL2        0.0621
     45 H           5.1035    3.3164    0.0000 H       2  UNL2        0.0230
     46 H           5.4985    2.5336    0.0000 H       2  UNL2        0.0230
     47 H           6.2813    2.9286    0.0000 H       2  UNL2        0.0230
     48 H           2.1467    9.8439    0.0000 H       2  UNL2        0.0636
     49 H           6.5267    7.4318    0.0000 H       2  UNL2        0.1028
     50 H           0.0000    7.9259    0.0000 H       2  UNL2        0.0618
     51 H           0.5148    9.5102    0.0000 H       2  UNL2        0.0618
     52 H           8.5002    4.3343    0.0000 H       2  UNL2        0.0661
     53 H           9.3760    4.2918    0.0000 H       2  UNL2        0.0661
     54 H           9.4185    5.1676    0.0000 H       2  UNL2        0.0661
     55 H           8.8164    7.9472    0.0000 H       2  UNL2        0.0660
     56 H           8.4154    8.7269    0.0000 H       2  UNL2        0.0660
     57 H           7.6357    8.3259    0.0000 H       2  UNL2        0.0660
     58 H           5.2092    0.0000    0.0000 H       1  UNL1        0.1454
@<TRIPOS>BOND
     1     1    58    1
     2     2    17    2
     3     3    24    1
     4     3    28    1
     5     4    25    1
     6     4    29    1
     7     5    24    2
     8     6     8    1
     9     6    14    1
    10     6    15    1
    11     7    17   am
    12     7    19    1
    13     7    43    1
    14     8     9    1
    15     8    10    1
    16     8    30    1
    17     9    11    1
    18     9    16    1
    19     9    17    1
    20    10    12    1
    21    10    31    1
    22    10    32    1
    23    11    14    1
    24    11    33    1
    25    11    34    1
    26    12    13    1
    27    12    20    1
    28    12    35    1
    29    13    15    1
    30    13    18    1
    31    13    36    1
    32    14    37    1
    33    14    38    1
    34    15    39    1
    35    15    40    1
    36    16    19   ar
    37    16    21   ar
    38    18    22    1
    39    18    41    1
    40    18    42    1
    41    19    23   ar
    42    20    24    1
    43    20    25    2
    44    21    26   ar
    45    21    44    1
    46    22    45    1
    47    22    46    1
    48    22    47    1
    49    23    27   ar
    50    23    48    1
    51    25    49    1
    52    26    27   ar
    53    26    50    1
    54    27    51    1
    55    28    52    1
    56    28    53    1
    57    28    54    1
    58    29    55    1
    59    29    56    1
    60    29    57    1
