@<TRIPOS>MOLECULE
IMPHY000949
 178 187 0 0 0
SMALL
GASTEIGER

@<TRIPOS>ATOM
      1 O          14.6075   -1.9552    0.0000 O.3     1  UNL1       -0.3450
      2 O           8.5851   -2.0892    0.0000 O.3     1  UNL1       -0.3448
      3 O          14.8799   -3.8998    0.0000 O.3     1  UNL1       -0.3642
      4 O           6.8019    1.0551    0.0000 O.3     1  UNL1       -0.3453
      5 O           6.8530   -2.0892    0.0000 O.3     1  UNL1       -0.3431
      6 O           7.6909    2.5416    0.0000 O.3     1  UNL1       -0.3431
      7 O           8.5851   -4.0892    0.0000 O.3     1  UNL1       -0.3378
      8 O           6.8530   -5.0892    0.0000 O.3     1  UNL1       -0.3864
      9 O           5.0855    2.0817    0.0000 O.3     1  UNL1       -0.3841
     10 O           5.1210   -4.0892    0.0000 O.3     1  UNL1       -0.3866
     11 O          18.6197   -1.2851    0.0000 O.3     1  UNL1       -0.3444
     12 O           5.1163    4.0815    0.0000 O.3     1  UNL1       -0.3864
     13 O           6.8636    5.0546    0.0000 O.3     1  UNL1       -0.3402
     14 O           7.7191   -5.5892    0.0000 O.3     1  UNL1       -0.3431
     15 O          10.3171   -5.0892    0.0000 O.3     1  UNL1       -0.3841
     16 O          20.1354   -0.4468    0.0000 O.3     1  UNL1       -0.3405
     17 O           5.1317    5.0813    0.0000 O.3     1  UNL1       -0.3405
     18 O          10.3171   -7.0892    0.0000 O.3     1  UNL1       -0.3864
     19 O           8.5851   -8.0892    0.0000 O.3     1  UNL1       -0.3866
     20 O          17.6517    0.4651    0.0000 O.3     1  UNL1       -0.3841
     21 O           6.8944    7.0544    0.0000 O.3     1  UNL1       -0.3841
     22 O          18.6835    2.1784    0.0000 O.3     1  UNL1       -0.3864
     23 O           5.1780    8.0810    0.0000 O.3     1  UNL1       -0.3864
     24 O          20.6831    2.1416    0.0000 O.3     1  UNL1       -0.3865
     25 O           3.4307    7.1078    0.0000 O.3     1  UNL1       -0.3865
     26 O          22.1350   -0.4836    0.0000 O.3     1  UNL1       -0.3924
     27 O           2.5417    5.6213    0.0000 O.3     1  UNL1       -0.3924
     28 C          12.1351   -2.1006    0.0000 C.3     1  UNL1       -0.0233
     29 C          12.1544   -1.1008    0.0000 C.3     1  UNL1       -0.0298
     30 C          11.2982   -0.5842    0.0000 C.3     1  UNL1       -0.0342
     31 C          10.4227   -1.0674    0.0000 C.3     1  UNL1       -0.0299
     32 C          13.0753   -2.4235    0.0000 C.3     1  UNL1       -0.0015
     33 C           9.5226   -0.5431    0.0000 C.3     1  UNL1        0.0003
     34 C          13.6743   -1.6302    0.0000 C.3     1  UNL1        0.0660
     35 C          13.1063   -0.8143    0.0000 C.3     1  UNL1       -0.0226
     36 C          11.2596   -2.5838    0.0000 C.3     1  UNL1       -0.0467
     37 C          10.4034   -2.0672    0.0000 C.3     1  UNL1       -0.0489
     38 C           9.5347    0.4985    0.0000 C.3     1  UNL1       -0.0307
     39 C          13.6434   -3.2320    0.0000 C.3     1  UNL1        0.0158
     40 C          11.3343    0.4568    0.0000 C.3     1  UNL1       -0.0494
     41 C          10.4466    1.0018    0.0000 C.3     1  UNL1       -0.0493
     42 C           8.5851   -1.0892    0.0000 C.3     1  UNL1        0.0700
     43 C          12.1159   -3.1004    0.0000 C.3     1  UNL1       -0.0590
     44 C          14.5885   -2.9432    0.0000 C.3     1  UNL1        0.1707
     45 C           8.6100    1.0661    0.0000 C.3     1  UNL1       -0.0230
     46 C           9.5111   -1.5430    0.0000 C.3     1  UNL1       -0.0567
     47 C           7.6476   -0.5431    0.0000 C.3     1  UNL1        0.0005
     48 C           7.6601    0.5418    0.0000 C.3     1  UNL1        0.0644
     49 C          13.3186   -4.1778    0.0000 C.3     1  UNL1       -0.0572
     50 C          15.5883   -2.9616    0.0000 C.3     1  UNL1        0.0052
     51 C          16.1042   -2.1049    0.0000 C.3     1  UNL1       -0.0250
     52 C           7.7191   -2.5892    0.0000 C.3     1  UNL1        0.1885
     53 C           6.8173    2.0550    0.0000 C.3     1  UNL1        0.1881
     54 C           7.7191   -3.5892    0.0000 C.3     1  UNL1        0.1406
     55 C          17.1040   -2.1234    0.0000 C.2     1  UNL1       -0.0510
     56 C           6.8530   -4.0892    0.0000 C.3     1  UNL1        0.1143
     57 C           5.9591    2.5683    0.0000 C.3     1  UNL1        0.1341
     58 C           5.9870   -2.5892    0.0000 C.3     1  UNL1        0.0873
     59 C           5.9870   -3.5892    0.0000 C.3     1  UNL1        0.1095
     60 C          17.6199   -1.2667    0.0000 C.3     1  UNL1        0.0716
     61 C           5.9745    3.5682    0.0000 C.3     1  UNL1        0.1143
     62 C           7.7064    3.5415    0.0000 C.3     1  UNL1        0.0877
     63 C          17.5880   -2.9984    0.0000 C.2     1  UNL1       -0.0973
     64 C           6.8481    4.0548    0.0000 C.3     1  UNL1        0.1160
     65 C           5.1210   -2.0892    0.0000 C.3     1  UNL1       -0.0361
     66 C           8.5851   -5.0892    0.0000 C.3     1  UNL1        0.1884
     67 C           8.5800    4.0280    0.0000 C.3     1  UNL1       -0.0361
     68 C           9.4511   -5.5892    0.0000 C.3     1  UNL1        0.1341
     69 C          19.1355   -0.4284    0.0000 C.3     1  UNL1        0.1883
     70 C           9.4511   -6.5892    0.0000 C.3     1  UNL1        0.1140
     71 C           6.0053    5.5679    0.0000 C.3     1  UNL1        0.1884
     72 C           7.7191   -6.5892    0.0000 C.3     1  UNL1        0.0873
     73 C           8.5851   -7.0892    0.0000 C.3     1  UNL1        0.1095
     74 C          18.6516    0.4467    0.0000 C.3     1  UNL1        0.1341
     75 C           6.0208    6.5678    0.0000 C.3     1  UNL1        0.1341
     76 C          19.1674    1.3034    0.0000 C.3     1  UNL1        0.1141
     77 C           6.8530   -7.0892    0.0000 C.3     1  UNL1       -0.0361
     78 C          20.6512    0.4099    0.0000 C.3     1  UNL1        0.1130
     79 C           5.1625    7.0811    0.0000 C.3     1  UNL1        0.1141
     80 C          20.1673    1.2850    0.0000 C.3     1  UNL1        0.1119
     81 C           4.2735    5.5946    0.0000 C.3     1  UNL1        0.1130
     82 C           4.2889    6.5945    0.0000 C.3     1  UNL1        0.1119
     83 C          21.6511    0.3915    0.0000 C.3     1  UNL1        0.0730
     84 C           3.3999    5.1080    0.0000 C.3     1  UNL1        0.0730
     85 H          12.2606   -0.2574    0.0000 H       1  UNL1        0.0310
     86 H          12.0455   -0.1792    0.0000 H       1  UNL1        0.0306
     87 H          11.1505   -1.5065    0.0000 H       1  UNL1        0.0310
     88 H          12.5646   -3.1030    0.0000 H       1  UNL1        0.0335
     89 H          14.1880   -0.9529    0.0000 H       1  UNL1        0.0600
     90 H          13.6496   -0.5155    0.0000 H       1  UNL1        0.0293
     91 H          12.8663   -0.2427    0.0000 H       1  UNL1        0.0293
     92 H          10.8520   -3.0510    0.0000 H       1  UNL1        0.0271
     93 H          11.6489   -3.0664    0.0000 H       1  UNL1        0.0271
     94 H           9.7950   -1.9478    0.0000 H       1  UNL1        0.0268
     95 H          10.1802   -2.6456    0.0000 H       1  UNL1        0.0268
     96 H           9.5543    1.3482    0.0000 H       1  UNL1        0.0308
     97 H          14.0743   -3.6779    0.0000 H       1  UNL1        0.0354
     98 H          11.9411    0.3296    0.0000 H       1  UNL1        0.0268
     99 H          11.5635    1.0329    0.0000 H       1  UNL1        0.0268
    100 H          10.8566    1.4669    0.0000 H       1  UNL1        0.0268
    101 H          10.0586    1.4853    0.0000 H       1  UNL1        0.0268
    102 H           8.0476   -1.3982    0.0000 H       1  UNL1        0.0603
    103 H          11.4960   -3.0884    0.0000 H       1  UNL1        0.0235
    104 H          12.1039   -3.7203    0.0000 H       1  UNL1        0.0235
    105 H          12.7358   -3.1124    0.0000 H       1  UNL1        0.0235
    106 H           9.0200    1.5312    0.0000 H       1  UNL1        0.0293
    107 H           8.2220    1.5496    0.0000 H       1  UNL1        0.0293
    108 H           8.8911   -1.5359    0.0000 H       1  UNL1        0.0236
    109 H           9.5039   -2.1630    0.0000 H       1  UNL1        0.0236
    110 H          10.1310   -1.5502    0.0000 H       1  UNL1        0.0236
    111 H           7.0380   -0.4300    0.0000 H       1  UNL1        0.0315
    112 H           7.4318   -1.1243    0.0000 H       1  UNL1        0.0315
    113 H           7.6708    1.1617    0.0000 H       1  UNL1        0.0598
    114 H          12.7322   -3.9764    0.0000 H       1  UNL1        0.0234
    115 H          13.1172   -4.7642    0.0000 H       1  UNL1        0.0234
    116 H          13.9050   -4.3792    0.0000 H       1  UNL1        0.0234
    117 H          15.4694   -3.5701    0.0000 H       1  UNL1        0.0320
    118 H          16.1669   -3.1844    0.0000 H       1  UNL1        0.0320
    119 H          15.4839   -4.0398    0.0000 H       1  UNL1        0.2128
    120 H          16.2231   -1.4964    0.0000 H       1  UNL1        0.0312
    121 H          15.5256   -1.8822    0.0000 H       1  UNL1        0.0312
    122 H           7.7191   -1.9692    0.0000 H       1  UNL1        0.0938
    123 H           6.2756    1.7533    0.0000 H       1  UNL1        0.0937
    124 H           7.7191   -4.2092    0.0000 H       1  UNL1        0.0675
    125 H           6.3161   -4.3992    0.0000 H       1  UNL1        0.0648
    126 H           5.4270    2.8865    0.0000 H       1  UNL1        0.0671
    127 H           5.9870   -1.9692    0.0000 H       1  UNL1        0.0621
    128 H           5.4501   -3.2792    0.0000 H       1  UNL1        0.0646
    129 H          17.7387   -0.6582    0.0000 H       1  UNL1        0.0608
    130 H          17.0413   -1.0439    0.0000 H       1  UNL1        0.0608
    131 H           5.9841    4.1881    0.0000 H       1  UNL1        0.0648
    132 H           8.2384    3.2232    0.0000 H       1  UNL1        0.0621
    133 H          17.2682   -3.5296    0.0000 H       1  UNL1        0.0535
    134 H          18.2079   -3.0098    0.0000 H       1  UNL1        0.0535
    135 H           7.3898    4.3564    0.0000 H       1  UNL1        0.0650
    136 H           5.4310   -1.5523    0.0000 H       1  UNL1        0.0255
    137 H           4.5841   -1.7792    0.0000 H       1  UNL1        0.0255
    138 H           4.8110   -2.6262    0.0000 H       1  UNL1        0.0255
    139 H           8.0482   -4.7792    0.0000 H       1  UNL1        0.0938
    140 H           6.3161   -5.3992    0.0000 H       1  UNL1        0.2100
    141 H           5.0759    1.4618    0.0000 H       1  UNL1        0.2101
    142 H           4.5841   -3.7792    0.0000 H       1  UNL1        0.2100
    143 H           8.8817    3.4864    0.0000 H       1  UNL1        0.0255
    144 H           9.1216    4.3297    0.0000 H       1  UNL1        0.0255
    145 H           8.2783    4.5697    0.0000 H       1  UNL1        0.0255
    146 H           4.5746    3.7798    0.0000 H       1  UNL1        0.2100
    147 H           9.9880   -5.8992    0.0000 H       1  UNL1        0.0671
    148 H          18.5157   -0.4170    0.0000 H       1  UNL1        0.0938
    149 H           9.4511   -7.2092    0.0000 H       1  UNL1        0.0648
    150 H           5.9958    4.9480    0.0000 H       1  UNL1        0.0938
    151 H           7.1821   -6.2792    0.0000 H       1  UNL1        0.0621
    152 H           8.0482   -7.3992    0.0000 H       1  UNL1        0.0646
    153 H          18.3515    0.9892    0.0000 H       1  UNL1        0.0671
    154 H          10.8541   -5.3992    0.0000 H       1  UNL1        0.2101
    155 H           6.0303    7.1877    0.0000 H       1  UNL1        0.0671
    156 H          19.4873    1.8345    0.0000 H       1  UNL1        0.0648
    157 H           6.5430   -6.5523    0.0000 H       1  UNL1        0.0255
    158 H           6.3161   -7.3992    0.0000 H       1  UNL1        0.0255
    159 H           7.1630   -7.6262    0.0000 H       1  UNL1        0.0255
    160 H          20.9513   -0.1327    0.0000 H       1  UNL1        0.0647
    161 H          10.3171   -7.7092    0.0000 H       1  UNL1        0.2100
    162 H           4.6304    7.3993    0.0000 H       1  UNL1        0.0648
    163 H          20.7872    1.2735    0.0000 H       1  UNL1        0.0647
    164 H           4.2639    4.9747    0.0000 H       1  UNL1        0.0647
    165 H           8.0482   -8.3992    0.0000 H       1  UNL1        0.2100
    166 H           4.8589    7.2144    0.0000 H       1  UNL1        0.0647
    167 H          17.3517    1.0076    0.0000 H       1  UNL1        0.2101
    168 H           6.9040    7.6743    0.0000 H       1  UNL1        0.2101
    169 H          22.2375    0.5928    0.0000 H       1  UNL1        0.0584
    170 H          21.5547    1.0039    0.0000 H       1  UNL1        0.0584
    171 H          19.0033    2.7096    0.0000 H       1  UNL1        0.2100
    172 H           2.9941    4.6393    0.0000 H       1  UNL1        0.0584
    173 H           3.7910    4.6270    0.0000 H       1  UNL1        0.0584
    174 H           4.6459    8.3992    0.0000 H       1  UNL1        0.2100
    175 H          21.3030    2.1302    0.0000 H       1  UNL1        0.2100
    176 H           3.4403    7.7277    0.0000 H       1  UNL1        0.2100
    177 H          22.7549   -0.4950    0.0000 H       1  UNL1        0.2095
    178 H           2.0000    5.3196    0.0000 H       1  UNL1        0.2095
@<TRIPOS>BOND
     1     1    34    1
     2     1    44    1
     3    42     2    1
     4    52     2    1
     5    44     3    1
     6     3   119    1
     7    48     4    1
     8    53     4    1
     9     5    52    1
    10     5    58    1
    11     6    53    1
    12     6    62    1
    13    54     7    1
    14    66     7    1
    15    56     8    1
    16     8   140    1
    17    57     9    1
    18     9   141    1
    19    59    10    1
    20    10   142    1
    21    11    60    1
    22    69    11    1
    23    61    12    1
    24    12   146    1
    25    64    13    1
    26    71    13    1
    27    14    66    1
    28    14    72    1
    29    68    15    1
    30    15   154    1
    31    16    69    1
    32    16    78    1
    33    17    71    1
    34    17    81    1
    35    70    18    1
    36    18   161    1
    37    73    19    1
    38    19   165    1
    39    74    20    1
    40    20   167    1
    41    75    21    1
    42    21   168    1
    43    76    22    1
    44    22   171    1
    45    79    23    1
    46    23   174    1
    47    80    24    1
    48    24   175    1
    49    82    25    1
    50    25   176    1
    51    26    83    1
    52    26   177    1
    53    27    84    1
    54    27   178    1
    55    28    29    1
    56    28    32    1
    57    28    36    1
    58    28    43    1
    59    29    30    1
    60    29    35    1
    61    29    85    1
    62    30    31    1
    63    30    40    1
    64    30    86    1
    65    31    33    1
    66    31    37    1
    67    31    87    1
    68    32    34    1
    69    32    39    1
    70    32    88    1
    71    33    38    1
    72    33    42    1
    73    33    46    1
    74    34    35    1
    75    34    89    1
    76    35    90    1
    77    35    91    1
    78    36    37    1
    79    36    92    1
    80    36    93    1
    81    37    94    1
    82    37    95    1
    83    38    41    1
    84    38    45    1
    85    38    96    1
    86    39    44    1
    87    39    49    1
    88    39    97    1
    89    40    41    1
    90    40    98    1
    91    40    99    1
    92    41   100    1
    93    41   101    1
    94    42    47    1
    95    42   102    1
    96    43   103    1
    97    43   104    1
    98    43   105    1
    99    44    50    1
   100    45    48    1
   101    45   106    1
   102    45   107    1
   103    46   108    1
   104    46   109    1
   105    46   110    1
   106    47    48    1
   107    47   111    1
   108    47   112    1
   109    48   113    1
   110    49   114    1
   111    49   115    1
   112    49   116    1
   113    50    51    1
   114    50   117    1
   115    50   118    1
   116    51    55    1
   117    51   120    1
   118    51   121    1
   119    52    54    1
   120    52   122    1
   121    53    57    1
   122    53   123    1
   123    54    56    1
   124    54   124    1
   125    55    60    1
   126    55    63    2
   127    56    59    1
   128    56   125    1
   129    57    61    1
   130    57   126    1
   131    58    59    1
   132    58    65    1
   133    58   127    1
   134    59   128    1
   135    60   129    1
   136    60   130    1
   137    61    64    1
   138    61   131    1
   139    62    64    1
   140    62    67    1
   141    62   132    1
   142    63   133    1
   143    63   134    1
   144    64   135    1
   145    65   136    1
   146    65   137    1
   147    65   138    1
   148    66    68    1
   149    66   139    1
   150    67   143    1
   151    67   144    1
   152    67   145    1
   153    68    70    1
   154    68   147    1
   155    69    74    1
   156    69   148    1
   157    70    73    1
   158    70   149    1
   159    71    75    1
   160    71   150    1
   161    72    73    1
   162    72    77    1
   163    72   151    1
   164    73   152    1
   165    74    76    1
   166    74   153    1
   167    75    79    1
   168    75   155    1
   169    76    80    1
   170    76   156    1
   171    77   157    1
   172    77   158    1
   173    77   159    1
   174    78    80    1
   175    78    83    1
   176    78   160    1
   177    79    82    1
   178    79   162    1
   179    80   163    1
   180    81    82    1
   181    81    84    1
   182    81   164    1
   183    82   166    1
   184    83   169    1
   185    83   170    1
   186    84   172    1
   187    84   173    1
