@<TRIPOS>MOLECULE
IMPHY015802
 15 15 0 0 0
SMALL
GASTEIGER

@<TRIPOS>ATOM
      1 O           4.5032   -1.1074    0.0000 O.2     1  UNL1       -0.4562
      2 O           3.4154    1.2404    0.0000 O.3     1  UNL1       -0.5031
      3 O           2.0000   -0.1595    0.0000 O.2     1  UNL1       -0.2890
      4 C           3.6942   -0.5197    0.0000 C.ar    1  UNL1        0.2106
      5 C           4.0032    0.4314    0.0000 C.ar    1  UNL1        0.1655
      6 C           2.7431   -0.8287    0.0000 C.2     1  UNL1        0.1985
      7 C           5.0032    0.4314    0.0000 C.ar    1  UNL1        0.0185
      8 C           5.3122   -0.5197    0.0000 C.ar    1  UNL1        0.0963
      9 C           2.5352   -1.8068    0.0000 C.3     1  UNL1        0.0018
     10 H           5.3676    0.9330    0.0000 H       1  UNL1        0.0686
     11 H           5.9019   -0.7112    0.0000 H       1  UNL1        0.1031
     12 H           1.9288   -1.6779    0.0000 H       1  UNL1        0.0310
     13 H           2.4063   -2.4133    0.0000 H       1  UNL1        0.0310
     14 H           3.1417   -1.9357    0.0000 H       1  UNL1        0.0310
     15 H           3.6676    1.8068    0.0000 H       1  UNL1        0.2923
@<TRIPOS>BOND
     1     1     4   ar
     2     1     8   ar
     3     2     5    1
     4     2    15    1
     5     3     6    2
     6     4     5   ar
     7     4     6    1
     8     5     7   ar
     9     6     9    1
    10     7     8   ar
    11     7    10    1
    12     8    11    1
    13     9    12    1
    14     9    13    1
    15     9    14    1
