@<TRIPOS>MOLECULE
IMPHY011376
 76 81 0 0 0
SMALL
GASTEIGER

@<TRIPOS>ATOM
      1 O           2.5405   -1.2210    0.0000 O.3     1  UNL1       -0.3902
      2 N           5.1557   -1.7242    0.0000 N.3     1  UNL1       -0.2932
      3 N          11.5631    3.6550    0.0000 N.3     1  UNL1       -0.3272
      4 C           6.2231    0.5106    0.0000 C.3     1  UNL1       -0.0244
      5 C           7.0892    0.0106    0.0000 C.3     1  UNL1       -0.0308
      6 C           5.4861   -0.1565    0.0000 C.3     1  UNL1       -0.0156
      7 C           5.8912   -1.0643    0.0000 C.3     1  UNL1        0.0147
      8 C           7.9552    0.5106    0.0000 C.3     1  UNL1       -0.0343
      9 C           7.9552    1.5106    0.0000 C.3     1  UNL1       -0.0323
     10 C           6.8800   -0.9612    0.0000 C.3     1  UNL1       -0.0334
     11 C           4.5037   -0.2632    0.0000 C.3     1  UNL1       -0.0211
     12 C           6.2231    1.5106    0.0000 C.3     1  UNL1       -0.0468
     13 C           8.8491    2.0452    0.0000 C.3     1  UNL1       -0.0260
     14 C           4.2999   -1.2301    0.0000 C.3     1  UNL1        0.0395
     15 C           7.0892    2.0106    0.0000 C.3     1  UNL1       -0.0489
     16 C           8.8491   -0.0241    0.0000 C.3     1  UNL1       -0.0494
     17 C           9.7552    1.5314    0.0000 C.3     1  UNL1       -0.0340
     18 C           5.3571    1.0106    0.0000 C.3     1  UNL1       -0.0590
     19 C           9.7552    0.4898    0.0000 C.3     1  UNL1       -0.0494
     20 C           8.8240    3.1300    0.0000 C.3     1  UNL1       -0.0457
     21 C           3.4007   -1.7310    0.0000 C.3     1  UNL1        0.0713
     22 C           5.1716   -2.7534    0.0000 C.3     1  UNL1        0.0022
     23 C           3.8326    0.4782    0.0000 C.3     1  UNL1       -0.0606
     24 C          10.6990    2.0666    0.0000 C.3     1  UNL1       -0.0344
     25 C           7.9793    2.5386    0.0000 C.3     1  UNL1       -0.0590
     26 C           4.2842   -3.2750    0.0000 C.3     1  UNL1       -0.0287
     27 C           3.3927   -2.7603    0.0000 C.3     1  UNL1       -0.0216
     28 C           9.7552    3.6869    0.0000 C.3     1  UNL1       -0.0372
     29 C          10.6990    3.1516    0.0000 C.3     1  UNL1        0.0051
     30 C           4.2880   -4.2750    0.0000 C.3     1  UNL1       -0.0612
     31 H           7.7762   -0.4899    0.0000 H       1  UNL1        0.0309
     32 H           5.1380    0.6190    0.0000 H       1  UNL1        0.0324
     33 H           6.2360   -1.8412    0.0000 H       1  UNL1        0.0466
     34 H           7.9486   -0.3394    0.0000 H       1  UNL1        0.0306
     35 H           8.6946    1.0913    0.0000 H       1  UNL1        0.0309
     36 H           6.8791   -1.5812    0.0000 H       1  UNL1        0.0283
     37 H           7.4964   -1.0273    0.0000 H       1  UNL1        0.0283
     38 H           3.9052   -0.4250    0.0000 H       1  UNL1        0.0317
     39 H           6.0111    2.0932    0.0000 H       1  UNL1        0.0271
     40 H           5.6126    1.4029    0.0000 H       1  UNL1        0.0271
     41 H           3.6157   -0.7258    0.0000 H       1  UNL1        0.0491
     42 H           7.4877    2.4855    0.0000 H       1  UNL1        0.0268
     43 H           6.6906    2.4855    0.0000 H       1  UNL1        0.0268
     44 H           8.4445   -0.4939    0.0000 H       1  UNL1        0.0268
     45 H           9.2428   -0.5031    0.0000 H       1  UNL1        0.0268
     46 H          10.4897    1.1036    0.0000 H       1  UNL1        0.0307
     47 H           5.6671    1.5475    0.0000 H       1  UNL1        0.0235
     48 H           4.8202    1.3206    0.0000 H       1  UNL1        0.0235
     49 H           5.0471    0.4737    0.0000 H       1  UNL1        0.0235
     50 H           9.9643   -0.0939    0.0000 H       1  UNL1        0.0268
     51 H          10.3661    0.5959    0.0000 H       1  UNL1        0.0268
     52 H           8.6016    3.7087    0.0000 H       1  UNL1        0.0271
     53 H           8.2158    3.0098    0.0000 H       1  UNL1        0.0271
     54 H           2.8608   -2.0358    0.0000 H       1  UNL1        0.0609
     55 H           5.3896   -3.3338    0.0000 H       1  UNL1        0.0429
     56 H           5.7808   -2.6380    0.0000 H       1  UNL1        0.0429
     57 H           4.2923    0.8943    0.0000 H       1  UNL1        0.0233
     58 H           3.4166    0.9379    0.0000 H       1  UNL1        0.0233
     59 H           3.3730    0.0622    0.0000 H       1  UNL1        0.0233
     60 H          10.9080    1.4830    0.0000 H       1  UNL1        0.0283
     61 H          11.3098    2.1727    0.0000 H       1  UNL1        0.0283
     62 H           8.2851    3.0779    0.0000 H       1  UNL1        0.0235
     63 H           7.4400    2.8444    0.0000 H       1  UNL1        0.0235
     64 H           7.6734    1.9992    0.0000 H       1  UNL1        0.0235
     65 H           4.8229   -3.5819    0.0000 H       1  UNL1        0.0311
     66 H           2.7827   -2.6495    0.0000 H       1  UNL1        0.0294
     67 H           3.1792   -3.3424    0.0000 H       1  UNL1        0.0294
     68 H          10.1488    4.1659    0.0000 H       1  UNL1        0.0280
     69 H           9.3506    4.1567    0.0000 H       1  UNL1        0.0280
     70 H          11.2365    2.8427    0.0000 H       1  UNL1        0.0458
     71 H           3.6680   -4.2774    0.0000 H       1  UNL1        0.0233
     72 H           4.2904   -4.8950    0.0000 H       1  UNL1        0.0233
     73 H           4.9080   -4.2726    0.0000 H       1  UNL1        0.0233
     74 H           2.0000   -1.5248    0.0000 H       1  UNL1        0.2098
     75 H          11.5607    4.2750    0.0000 H       1  UNL1        0.1185
     76 H          12.1012    3.3470    0.0000 H       1  UNL1        0.1185
@<TRIPOS>BOND
     1    21     1    1
     2     1    74    1
     3     2     7    1
     4     2    14    1
     5     2    22    1
     6    29     3    1
     7     3    75    1
     8     3    76    1
     9     4     5    1
    10     4     6    1
    11     4    12    1
    12     4    18    1
    13     5     8    1
    14     5    10    1
    15     5    31    1
    16     6     7    1
    17     6    11    1
    18     6    32    1
    19     7    10    1
    20     7    33    1
    21     8     9    1
    22     8    16    1
    23     8    34    1
    24     9    13    1
    25     9    15    1
    26     9    35    1
    27    10    36    1
    28    10    37    1
    29    11    14    1
    30    11    23    1
    31    11    38    1
    32    12    15    1
    33    12    39    1
    34    12    40    1
    35    13    17    1
    36    13    20    1
    37    13    25    1
    38    14    21    1
    39    14    41    1
    40    15    42    1
    41    15    43    1
    42    16    19    1
    43    16    44    1
    44    16    45    1
    45    17    19    1
    46    17    24    1
    47    17    46    1
    48    18    47    1
    49    18    48    1
    50    18    49    1
    51    19    50    1
    52    19    51    1
    53    20    28    1
    54    20    52    1
    55    20    53    1
    56    21    27    1
    57    21    54    1
    58    22    26    1
    59    22    55    1
    60    22    56    1
    61    23    57    1
    62    23    58    1
    63    23    59    1
    64    24    29    1
    65    24    60    1
    66    24    61    1
    67    25    62    1
    68    25    63    1
    69    25    64    1
    70    26    27    1
    71    26    30    1
    72    26    65    1
    73    27    66    1
    74    27    67    1
    75    28    29    1
    76    28    68    1
    77    28    69    1
    78    29    70    1
    79    30    71    1
    80    30    72    1
    81    30    73    1
