@<TRIPOS>MOLECULE
IMPHY007240
 100 106 0 0 0
SMALL
GASTEIGER

@<TRIPOS>ATOM
      1 O           6.8671   -4.1888    0.0000 O.3     1  UNL1       -0.3443
      2 O           9.2738   -3.5190    0.0000 O.3     1  UNL1       -0.4802
      3 O           9.2604   -1.7870    0.0000 O.2     1  UNL1       -0.2503
      4 O           6.1197    5.4102    0.0000 O.3     1  UNL1       -0.4575
      5 O           5.1350   -4.1888    0.0000 O.3     1  UNL1       -0.3405
      6 O           6.8671   -6.1888    0.0000 O.3     1  UNL1       -0.3841
      7 O           5.1350   -7.1888    0.0000 O.3     1  UNL1       -0.3864
      8 O           5.7822    7.1090    0.0000 O.2     1  UNL1       -0.2453
      9 O           3.4030   -6.1888    0.0000 O.3     1  UNL1       -0.3865
     10 O           2.5369   -4.6888    0.0000 O.3     1  UNL1       -0.3924
     11 C           6.8948   -0.1196    0.0000 C.3     1  UNL1       -0.0194
     12 C           6.8910   -1.1196    0.0000 C.3     1  UNL1       -0.0188
     13 C           6.0264   -0.6163    0.0000 C.3     1  UNL1       -0.0401
     14 C           7.7628    0.3770    0.0000 C.3     1  UNL1       -0.0289
     15 C           7.7551   -1.6229    0.0000 C.3     1  UNL1       -0.0169
     16 C           7.7829    1.4185    0.0000 C.3     1  UNL1       -0.0231
     17 C           5.9868    0.3907    0.0000 C.3     1  UNL1       -0.0460
     18 C           6.8869    1.9497    0.0000 C.3     1  UNL1       -0.0232
     19 C           5.9790   -1.6229    0.0000 C.3     1  UNL1       -0.0442
     20 C           8.6269   -0.1263    0.0000 C.3     1  UNL1       -0.0489
     21 C           8.6230   -1.1263    0.0000 C.3     1  UNL1       -0.0483
     22 C           5.9828    1.4324    0.0000 C.3     1  UNL1       -0.0463
     23 C           7.7671   -2.6645    0.0000 C.3     1  UNL1        0.0941
     24 C           7.1165    2.9594    0.0000 C.3     1  UNL1       -0.0292
     25 C           8.5586    2.1044    0.0000 C.3     1  UNL1       -0.0466
     26 C           5.9670   -2.6645    0.0000 C.3     1  UNL1       -0.0249
     27 C           6.8671   -3.1888    0.0000 C.3     1  UNL1        0.0775
     28 C           8.1475    3.0548    0.0000 C.3     1  UNL1       -0.0488
     29 C           8.6430    0.9085    0.0000 C.3     1  UNL1       -0.0588
     30 C           6.0267    2.4597    0.0000 C.3     1  UNL1       -0.0588
     31 C           6.4573    3.7113    0.0000 C.3     1  UNL1       -0.0030
     32 C           8.2738   -3.5267    0.0000 C.3     1  UNL1       -0.0467
     33 C           8.7671   -2.6568    0.0000 C.2     1  UNL1        0.3135
     34 C           6.7789    4.6582    0.0000 C.3     1  UNL1        0.1096
     35 C           5.4765    3.5164    0.0000 C.3     1  UNL1       -0.0588
     36 C           6.0010   -4.6888    0.0000 C.3     1  UNL1        0.1882
     37 C           7.7597    4.8531    0.0000 C.3     1  UNL1        0.0036
     38 C           6.0010   -5.6888    0.0000 C.3     1  UNL1        0.1341
     39 C           8.0814    5.8000    0.0000 C.2     1  UNL1       -0.0708
     40 C           6.4414    6.3570    0.0000 C.2     1  UNL1        0.3349
     41 C           5.1350   -6.1888    0.0000 C.3     1  UNL1        0.1141
     42 C           4.2690   -4.6888    0.0000 C.3     1  UNL1        0.1130
     43 C           7.4222    6.5519    0.0000 C.2     1  UNL1        0.0297
     44 C           4.2690   -5.6888    0.0000 C.3     1  UNL1        0.1119
     45 C           3.4030   -4.1888    0.0000 C.3     1  UNL1        0.0730
     46 C           7.7438    7.4988    0.0000 C.3     1  UNL1       -0.0332
     47 H           5.6297   -0.1398    0.0000 H       1  UNL1        0.0276
     48 H           5.6261   -1.0897    0.0000 H       1  UNL1        0.0276
     49 H           8.5038    0.7935    0.0000 H       1  UNL1        0.0312
     50 H           8.4928   -2.0451    0.0000 H       1  UNL1        0.0318
     51 H           5.3755    0.4945    0.0000 H       1  UNL1        0.0271
     52 H           5.7800   -0.1938    0.0000 H       1  UNL1        0.0271
     53 H           5.7768   -1.0369    0.0000 H       1  UNL1        0.0272
     54 H           5.3670   -1.7220    0.0000 H       1  UNL1        0.0272
     55 H           9.2370   -0.2363    0.0000 H       1  UNL1        0.0268
     56 H           8.8412    0.4555    0.0000 H       1  UNL1        0.0268
     57 H           8.8328   -1.7097    0.0000 H       1  UNL1        0.0269
     58 H           9.2340   -1.0210    0.0000 H       1  UNL1        0.0269
     59 H           5.7715    2.0152    0.0000 H       1  UNL1        0.0271
     60 H           5.3724    1.3239    0.0000 H       1  UNL1        0.0271
     61 H           7.4313    3.7489    0.0000 H       1  UNL1        0.0310
     62 H           8.9182    1.5994    0.0000 H       1  UNL1        0.0271
     63 H           9.0986    2.4090    0.0000 H       1  UNL1        0.0271
     64 H           5.3574   -2.5514    0.0000 H       1  UNL1        0.0291
     65 H           5.7512   -3.2458    0.0000 H       1  UNL1        0.0291
     66 H           7.4046   -3.4978    0.0000 H       1  UNL1        0.0608
     67 H           8.7393    3.2397    0.0000 H       1  UNL1        0.0268
     68 H           8.0258    3.6627    0.0000 H       1  UNL1        0.0268
     69 H           8.3269    0.3752    0.0000 H       1  UNL1        0.0235
     70 H           9.1764    0.5923    0.0000 H       1  UNL1        0.0235
     71 H           8.9592    1.4418    0.0000 H       1  UNL1        0.0235
     72 H           6.3429    2.9930    0.0000 H       1  UNL1        0.0235
     73 H           5.4934    2.7758    0.0000 H       1  UNL1        0.0235
     74 H           5.7105    1.9264    0.0000 H       1  UNL1        0.0235
     75 H           6.2579    3.1243    0.0000 H       1  UNL1        0.0337
     76 H           7.7393   -3.8408    0.0000 H       1  UNL1        0.0241
     77 H           8.5879   -4.0612    0.0000 H       1  UNL1        0.0241
     78 H           8.8083   -3.2125    0.0000 H       1  UNL1        0.0241
     79 H           5.9452    4.4925    0.0000 H       1  UNL1        0.0740
     80 H           5.3556    4.1246    0.0000 H       1  UNL1        0.0234
     81 H           4.8683    3.3956    0.0000 H       1  UNL1        0.0234
     82 H           5.5973    2.9083    0.0000 H       1  UNL1        0.0234
     83 H           6.0010   -4.0688    0.0000 H       1  UNL1        0.0937
     84 H           9.8937   -3.5142    0.0000 H       1  UNL1        0.2951
     85 H           7.7731    4.2332    0.0000 H       1  UNL1        0.0343
     86 H           8.3725    4.7587    0.0000 H       1  UNL1        0.0343
     87 H           6.0010   -6.3088    0.0000 H       1  UNL1        0.0671
     88 H           8.6895    5.9208    0.0000 H       1  UNL1        0.0578
     89 H           4.5981   -6.4988    0.0000 H       1  UNL1        0.0648
     90 H           4.2690   -4.0688    0.0000 H       1  UNL1        0.0647
     91 H           3.7320   -5.3788    0.0000 H       1  UNL1        0.0647
     92 H           6.8671   -6.8088    0.0000 H       1  UNL1        0.2101
     93 H           3.8015   -3.7138    0.0000 H       1  UNL1        0.0584
     94 H           3.0044   -3.7138    0.0000 H       1  UNL1        0.0584
     95 H           8.3309    7.2994    0.0000 H       1  UNL1        0.0280
     96 H           7.9432    8.0859    0.0000 H       1  UNL1        0.0280
     97 H           7.1568    7.6982    0.0000 H       1  UNL1        0.0280
     98 H           4.5981   -7.4988    0.0000 H       1  UNL1        0.2100
     99 H           3.4030   -6.8088    0.0000 H       1  UNL1        0.2100
    100 H           2.0000   -4.3788    0.0000 H       1  UNL1        0.2095
@<TRIPOS>BOND
     1    27     1    1
     2    36     1    1
     3     2    33    1
     4     2    84    1
     5     3    33    2
     6     4    34    1
     7     4    40    1
     8     5    36    1
     9     5    42    1
    10    38     6    1
    11     6    92    1
    12    41     7    1
    13     7    98    1
    14     8    40    2
    15    44     9    1
    16     9    99    1
    17    10    45    1
    18    10   100    1
    19    11    12    1
    20    11    13    1
    21    11    14    1
    22    11    17    1
    23    12    13    1
    24    12    15    1
    25    12    19    1
    26    13    47    1
    27    13    48    1
    28    14    16    1
    29    14    20    1
    30    14    49    1
    31    15    21    1
    32    15    23    1
    33    15    50    1
    34    16    18    1
    35    16    25    1
    36    16    29    1
    37    17    22    1
    38    17    51    1
    39    17    52    1
    40    18    22    1
    41    18    24    1
    42    18    30    1
    43    19    26    1
    44    19    53    1
    45    19    54    1
    46    20    21    1
    47    20    55    1
    48    20    56    1
    49    21    57    1
    50    21    58    1
    51    22    59    1
    52    22    60    1
    53    23    27    1
    54    23    32    1
    55    23    33    1
    56    24    28    1
    57    24    31    1
    58    24    61    1
    59    25    28    1
    60    25    62    1
    61    25    63    1
    62    26    27    1
    63    26    64    1
    64    26    65    1
    65    27    66    1
    66    28    67    1
    67    28    68    1
    68    29    69    1
    69    29    70    1
    70    29    71    1
    71    30    72    1
    72    30    73    1
    73    30    74    1
    74    31    34    1
    75    31    35    1
    76    31    75    1
    77    32    76    1
    78    32    77    1
    79    32    78    1
    80    34    37    1
    81    34    79    1
    82    35    80    1
    83    35    81    1
    84    35    82    1
    85    36    38    1
    86    36    83    1
    87    37    39    1
    88    37    85    1
    89    37    86    1
    90    38    41    1
    91    38    87    1
    92    39    43    2
    93    39    88    1
    94    40    43    1
    95    41    44    1
    96    41    89    1
    97    42    44    1
    98    42    45    1
    99    42    90    1
   100    43    46    1
   101    44    91    1
   102    45    93    1
   103    45    94    1
   104    46    95    1
   105    46    96    1
   106    46    97    1
