@<TRIPOS>MOLECULE
IMPHY015075
 155 164 0 0 0
SMALL
GASTEIGER

@<TRIPOS>ATOM
      1 O           5.5982    7.6604    0.0000 O.3     1  UNL1       -0.3553
      2 O          12.0262    2.3059    0.0000 O.3     1  UNL1       -0.3454
      3 O          11.1602    0.8059    0.0000 O.3     1  UNL1       -0.3405
      4 O          13.7583    1.3059    0.0000 O.3     1  UNL1       -0.3841
      5 O          13.7583   -0.6941    0.0000 O.3     1  UNL1       -0.3864
      6 O          12.0262   -1.6941    0.0000 O.3     1  UNL1       -0.3401
      7 O           9.4281   -0.1941    0.0000 O.3     1  UNL1       -0.3924
      8 O          10.2942   -1.6941    0.0000 O.3     1  UNL1       -0.3405
      9 O          12.0262   -3.6941    0.0000 O.3     1  UNL1       -0.3377
     10 O          10.2942   -4.6941    0.0000 O.3     1  UNL1       -0.3401
     11 O           8.5621   -3.6941    0.0000 O.3     1  UNL1       -0.3865
     12 O          12.0262   -5.4262    0.0000 O.3     1  UNL1       -0.3405
     13 O           8.5621   -0.6941    0.0000 O.3     1  UNL1       -0.3924
     14 O           8.5621   -4.6941    0.0000 O.3     1  UNL1       -0.3461
     15 O          14.0262   -3.6941    0.0000 O.3     1  UNL1       -0.3841
     16 O          15.0262   -5.4262    0.0000 O.3     1  UNL1       -0.3864
     17 O          10.2942   -6.6941    0.0000 O.3     1  UNL1       -0.3841
     18 O          14.0263   -7.1582    0.0000 O.3     1  UNL1       -0.3865
     19 O           8.5621   -7.6941    0.0000 O.3     1  UNL1       -0.3864
     20 O           6.8300   -6.6941    0.0000 O.3     1  UNL1       -0.3869
     21 O          12.5263   -8.0242    0.0000 O.3     1  UNL1       -0.3924
     22 N           4.6368    8.1572    0.0000 N.3     1  UNL1       -0.2885
     23 C           6.6742    5.4297    0.0000 C.3     1  UNL1       -0.0233
     24 C           7.5383    5.9330    0.0000 C.3     1  UNL1       -0.0298
     25 C           5.9346    6.0939    0.0000 C.3     1  UNL1       -0.0025
     26 C           8.4062    5.4363    0.0000 C.3     1  UNL1       -0.0343
     27 C           8.4101    4.4363    0.0000 C.3     1  UNL1       -0.0323
     28 C           6.3362    7.0032    0.0000 C.3     1  UNL1        0.0649
     29 C           9.3061    3.9051    0.0000 C.3     1  UNL1       -0.0260
     30 C           7.3253    6.9040    0.0000 C.3     1  UNL1       -0.0226
     31 C           6.6780    4.4297    0.0000 C.3     1  UNL1       -0.0467
     32 C           4.9518    6.1968    0.0000 C.3     1  UNL1        0.0046
     33 C           7.5460    3.9330    0.0000 C.3     1  UNL1       -0.0489
     34 C          10.2102    4.4225    0.0000 C.3     1  UNL1       -0.0330
     35 C           9.2981    5.9744    0.0000 C.3     1  UNL1       -0.0494
     36 C           4.7443    7.1630    0.0000 C.3     1  UNL1        0.1239
     37 C          10.2061    5.4641    0.0000 C.3     1  UNL1       -0.0494
     38 C           5.8101    4.9263    0.0000 C.3     1  UNL1       -0.0590
     39 C           9.2852    2.8203    0.0000 C.3     1  UNL1       -0.0448
     40 C          11.1560    3.8909    0.0000 C.3     1  UNL1       -0.0232
     41 C           8.4381    3.4085    0.0000 C.3     1  UNL1       -0.0590
     42 C           3.9370    6.5728    0.0000 C.3     1  UNL1       -0.0095
     43 C           4.2836    5.4528    0.0000 C.3     1  UNL1       -0.0582
     44 C          10.2185    2.2670    0.0000 C.3     1  UNL1       -0.0260
     45 C          11.1602    2.8059    0.0000 C.3     1  UNL1        0.0621
     46 C           3.0223    6.9768    0.0000 C.3     1  UNL1       -0.0454
     47 C           3.7220    8.5612    0.0000 C.3     1  UNL1        0.0010
     48 C           2.9148    7.9710    0.0000 C.3     1  UNL1       -0.0311
     49 C           2.0000    8.3750    0.0000 C.3     1  UNL1       -0.0613
     50 C          12.0262    1.3059    0.0000 C.3     1  UNL1        0.1882
     51 C          12.8922    0.8059    0.0000 C.3     1  UNL1        0.1341
     52 C          12.8922   -0.1941    0.0000 C.3     1  UNL1        0.1144
     53 C          11.1602   -0.1941    0.0000 C.3     1  UNL1        0.1134
     54 C          12.0262   -0.6941    0.0000 C.3     1  UNL1        0.1184
     55 C          10.2942   -0.6941    0.0000 C.3     1  UNL1        0.0730
     56 C          11.1602   -2.1941    0.0000 C.3     1  UNL1        0.1888
     57 C          11.1602   -3.1941    0.0000 C.3     1  UNL1        0.1410
     58 C          10.2942   -3.6941    0.0000 C.3     1  UNL1        0.1209
     59 C           9.4281   -2.1941    0.0000 C.3     1  UNL1        0.1130
     60 C           9.4281   -3.1941    0.0000 C.3     1  UNL1        0.1123
     61 C           8.5621   -1.6941    0.0000 C.3     1  UNL1        0.0730
     62 C          12.5263   -4.5601    0.0000 C.3     1  UNL1        0.1885
     63 C           9.4281   -5.1941    0.0000 C.3     1  UNL1        0.1880
     64 C          13.5262   -4.5601    0.0000 C.3     1  UNL1        0.1341
     65 C          14.0262   -5.4262    0.0000 C.3     1  UNL1        0.1141
     66 C           9.4281   -6.1941    0.0000 C.3     1  UNL1        0.1341
     67 C          12.5263   -6.2922    0.0000 C.3     1  UNL1        0.1130
     68 C          13.5263   -6.2921    0.0000 C.3     1  UNL1        0.1119
     69 C           8.5621   -6.6941    0.0000 C.3     1  UNL1        0.1137
     70 C           7.6961   -5.1941    0.0000 C.3     1  UNL1        0.0792
     71 C           7.6961   -6.1941    0.0000 C.3     1  UNL1        0.1069
     72 C          12.0262   -7.1582    0.0000 C.3     1  UNL1        0.0730
     73 H           8.2234    6.4361    0.0000 H       1  UNL1        0.0310
     74 H           5.5895    5.3171    0.0000 H       1  UNL1        0.0335
     75 H           8.3964    6.2863    0.0000 H       1  UNL1        0.0306
     76 H           9.1478    4.8585    0.0000 H       1  UNL1        0.0309
     77 H           6.6779    7.7815    0.0000 H       1  UNL1        0.0600
     78 H           7.9415    6.9724    0.0000 H       1  UNL1        0.0293
     79 H           7.3220    7.5240    0.0000 H       1  UNL1        0.0293
     80 H           6.0670    4.5350    0.0000 H       1  UNL1        0.0271
     81 H           6.4682    3.8462    0.0000 H       1  UNL1        0.0271
     82 H           4.3526    6.3563    0.0000 H       1  UNL1        0.0343
     83 H           7.1493    3.4565    0.0000 H       1  UNL1        0.0268
     84 H           7.9463    3.4596    0.0000 H       1  UNL1        0.0268
     85 H          10.9430    4.8531    0.0000 H       1  UNL1        0.0307
     86 H           9.6899    6.4550    0.0000 H       1  UNL1        0.0268
     87 H           8.8917    6.4427    0.0000 H       1  UNL1        0.0268
     88 H          10.8174    5.3604    0.0000 H       1  UNL1        0.0268
     89 H          10.4129    6.0486    0.0000 H       1  UNL1        0.0268
     90 H           5.4980    5.4621    0.0000 H       1  UNL1        0.0235
     91 H           5.2744    4.6143    0.0000 H       1  UNL1        0.0235
     92 H           6.1222    4.3906    0.0000 H       1  UNL1        0.0235
     93 H           8.6765    2.9382    0.0000 H       1  UNL1        0.0271
     94 H           9.0649    2.2408    0.0000 H       1  UNL1        0.0271
     95 H          11.7673    3.7871    0.0000 H       1  UNL1        0.0293
     96 H          11.3628    4.4754    0.0000 H       1  UNL1        0.0293
     97 H           8.1302    3.9466    0.0000 H       1  UNL1        0.0235
     98 H           7.9000    3.1006    0.0000 H       1  UNL1        0.0235
     99 H           8.7460    2.8704    0.0000 H       1  UNL1        0.0235
    100 H           3.5918    6.0577    0.0000 H       1  UNL1        0.0306
    101 H           4.3843    6.1434    0.0000 H       1  UNL1        0.0306
    102 H           3.8223    5.8671    0.0000 H       1  UNL1        0.0234
    103 H           3.8693    4.9916    0.0000 H       1  UNL1        0.0234
    104 H           4.7449    5.0385    0.0000 H       1  UNL1        0.0234
    105 H           9.8157    1.7957    0.0000 H       1  UNL1        0.0290
    106 H          10.6139    1.7895    0.0000 H       1  UNL1        0.0290
    107 H          11.1590    2.1859    0.0000 H       1  UNL1        0.0597
    108 H           5.1373    8.5231    0.0000 H       1  UNL1        0.1246
    109 H           2.4036    7.0182    0.0000 H       1  UNL1        0.0270
    110 H           2.8741    6.3747    0.0000 H       1  UNL1        0.0270
    111 H           4.0672    9.0762    0.0000 H       1  UNL1        0.0427
    112 H           3.2747    8.9905    0.0000 H       1  UNL1        0.0427
    113 H           2.8481    8.5874    0.0000 H       1  UNL1        0.0310
    114 H           2.2505    8.9421    0.0000 H       1  UNL1        0.0233
    115 H           1.4328    8.6255    0.0000 H       1  UNL1        0.0233
    116 H           1.7495    7.8078    0.0000 H       1  UNL1        0.0233
    117 H          12.5631    1.6159    0.0000 H       1  UNL1        0.0937
    118 H          13.4292    0.4959    0.0000 H       1  UNL1        0.0671
    119 H          13.4292    0.1159    0.0000 H       1  UNL1        0.0648
    120 H          10.6232    0.1159    0.0000 H       1  UNL1        0.0647
    121 H          12.5631   -1.0041    0.0000 H       1  UNL1        0.0651
    122 H          13.7583    1.9259    0.0000 H       1  UNL1        0.2101
    123 H           9.8956   -1.1691    0.0000 H       1  UNL1        0.0584
    124 H          10.6927   -1.1691    0.0000 H       1  UNL1        0.0584
    125 H          14.2952   -0.3841    0.0000 H       1  UNL1        0.2100
    126 H          11.1602   -1.5741    0.0000 H       1  UNL1        0.0938
    127 H           9.4281    0.4259    0.0000 H       1  UNL1        0.2095
    128 H          11.1602   -3.8141    0.0000 H       1  UNL1        0.0675
    129 H           9.7572   -4.0041    0.0000 H       1  UNL1        0.0651
    130 H           9.4281   -1.5741    0.0000 H       1  UNL1        0.0647
    131 H           8.8912   -2.8841    0.0000 H       1  UNL1        0.0647
    132 H           7.9515   -1.5864    0.0000 H       1  UNL1        0.0584
    133 H           8.3500   -2.2767    0.0000 H       1  UNL1        0.0584
    134 H          12.8363   -4.0232    0.0000 H       1  UNL1        0.0938
    135 H           8.0252   -3.3841    0.0000 H       1  UNL1        0.2100
    136 H           9.4281   -4.5741    0.0000 H       1  UNL1        0.0937
    137 H          14.1462   -4.5601    0.0000 H       1  UNL1        0.0671
    138 H          14.3362   -5.9631    0.0000 H       1  UNL1        0.0648
    139 H           9.4281   -6.8141    0.0000 H       1  UNL1        0.0671
    140 H           8.0252   -0.3841    0.0000 H       1  UNL1        0.2095
    141 H          11.9063   -6.2922    0.0000 H       1  UNL1        0.0647
    142 H          14.1463   -6.2921    0.0000 H       1  UNL1        0.0647
    143 H           8.0252   -7.0041    0.0000 H       1  UNL1        0.0647
    144 H          14.6462   -3.6941    0.0000 H       1  UNL1        0.2101
    145 H           7.4840   -4.6115    0.0000 H       1  UNL1        0.0587
    146 H           7.0855   -5.3018    0.0000 H       1  UNL1        0.0587
    147 H           7.1591   -5.8841    0.0000 H       1  UNL1        0.0643
    148 H          11.5513   -6.7597    0.0000 H       1  UNL1        0.0584
    149 H          11.5513   -7.5568    0.0000 H       1  UNL1        0.0584
    150 H          15.3362   -4.8892    0.0000 H       1  UNL1        0.2100
    151 H          10.2942   -7.3141    0.0000 H       1  UNL1        0.2101
    152 H          14.6462   -7.1582    0.0000 H       1  UNL1        0.2100
    153 H           8.0252   -8.0041    0.0000 H       1  UNL1        0.2100
    154 H           6.2931   -6.3841    0.0000 H       1  UNL1        0.2100
    155 H          12.2162   -8.5612    0.0000 H       1  UNL1        0.2095
@<TRIPOS>BOND
     1     1    28    1
     2    36     1    1
     3    45     2    1
     4    50     2    1
     5     3    50    1
     6     3    53    1
     7    51     4    1
     8     4   122    1
     9    52     5    1
    10     5   125    1
    11    54     6    1
    12    56     6    1
    13     7    55    1
    14     7   127    1
    15     8    56    1
    16     8    59    1
    17    57     9    1
    18    62     9    1
    19    58    10    1
    20    63    10    1
    21    60    11    1
    22    11   135    1
    23    12    62    1
    24    12    67    1
    25    13    61    1
    26    13   140    1
    27    14    63    1
    28    14    70    1
    29    64    15    1
    30    15   144    1
    31    65    16    1
    32    16   150    1
    33    66    17    1
    34    17   151    1
    35    68    18    1
    36    18   152    1
    37    69    19    1
    38    19   153    1
    39    71    20    1
    40    20   154    1
    41    21    72    1
    42    21   155    1
    43    22    36    1
    44    22    47    1
    45    22   108    1
    46    23    24    1
    47    23    25    1
    48    23    31    1
    49    23    38    1
    50    24    26    1
    51    24    30    1
    52    24    73    1
    53    25    28    1
    54    25    32    1
    55    25    74    1
    56    26    27    1
    57    26    35    1
    58    26    75    1
    59    27    29    1
    60    27    33    1
    61    27    76    1
    62    28    30    1
    63    28    77    1
    64    29    34    1
    65    29    39    1
    66    29    41    1
    67    30    78    1
    68    30    79    1
    69    31    33    1
    70    31    80    1
    71    31    81    1
    72    32    36    1
    73    32    43    1
    74    32    82    1
    75    33    83    1
    76    33    84    1
    77    34    37    1
    78    34    40    1
    79    34    85    1
    80    35    37    1
    81    35    86    1
    82    35    87    1
    83    36    42    1
    84    37    88    1
    85    37    89    1
    86    38    90    1
    87    38    91    1
    88    38    92    1
    89    39    44    1
    90    39    93    1
    91    39    94    1
    92    40    45    1
    93    40    95    1
    94    40    96    1
    95    41    97    1
    96    41    98    1
    97    41    99    1
    98    42    46    1
    99    42   100    1
   100    42   101    1
   101    43   102    1
   102    43   103    1
   103    43   104    1
   104    44    45    1
   105    44   105    1
   106    44   106    1
   107    45   107    1
   108    46    48    1
   109    46   109    1
   110    46   110    1
   111    47    48    1
   112    47   111    1
   113    47   112    1
   114    48    49    1
   115    48   113    1
   116    49   114    1
   117    49   115    1
   118    49   116    1
   119    50    51    1
   120    50   117    1
   121    51    52    1
   122    51   118    1
   123    52    54    1
   124    52   119    1
   125    53    54    1
   126    53    55    1
   127    53   120    1
   128    54   121    1
   129    55   123    1
   130    55   124    1
   131    56    57    1
   132    56   126    1
   133    57    58    1
   134    57   128    1
   135    58    60    1
   136    58   129    1
   137    59    60    1
   138    59    61    1
   139    59   130    1
   140    60   131    1
   141    61   132    1
   142    61   133    1
   143    62    64    1
   144    62   134    1
   145    63    66    1
   146    63   136    1
   147    64    65    1
   148    64   137    1
   149    65    68    1
   150    65   138    1
   151    66    69    1
   152    66   139    1
   153    67    68    1
   154    67    72    1
   155    67   141    1
   156    68   142    1
   157    69    71    1
   158    69   143    1
   159    70    71    1
   160    70   145    1
   161    70   146    1
   162    71   147    1
   163    72   148    1
   164    72   149    1
