@<TRIPOS>MOLECULE
IMPHY008420
 32 33 0 0 0
SMALL
GASTEIGER

@<TRIPOS>ATOM
      1 O           2.0000   -1.0950    0.0000 O.2     1  UNL1       -0.4705
      2 O           6.2619   -0.5950    0.0000 O.3     1  UNL1       -0.3915
      3 O           2.8660   -2.5950    0.0000 O.3     1  UNL1       -0.3575
      4 O           2.0000    1.9050    0.0000 O.3     1  UNL1       -0.4646
      5 O           3.7320    1.9050    0.0000 O.2     1  UNL1       -0.2452
      6 C           3.7320   -1.0950    0.0000 C.3     1  UNL1        0.0335
      7 C           3.7320   -0.0950    0.0000 C.3     1  UNL1        0.0050
      8 C           4.6783   -1.3997    0.0000 C.3     1  UNL1       -0.0087
      9 C           5.2619   -0.5950    0.0000 C.3     1  UNL1        0.0588
     10 C           4.6783    0.2097    0.0000 C.3     1  UNL1       -0.0190
     11 C           2.8660   -1.5950    0.0000 C.3     1  UNL1        0.2021
     12 C           2.8660    0.4050    0.0000 C.2     1  UNL1        0.0744
     13 C           4.9889   -2.3502    0.0000 C.3     1  UNL1       -0.0596
     14 C           2.0000   -0.0950    0.0000 C.2     1  UNL1        0.0981
     15 C           2.8660    1.4050    0.0000 C.2     1  UNL1        0.3381
     16 C           2.0000    2.9050    0.0000 C.3     1  UNL1        0.0820
     17 H           3.8220   -1.9402    0.0000 H       1  UNL1        0.0370
     18 H           3.8220    0.7502    0.0000 H       1  UNL1        0.0358
     19 H           5.2908   -1.4959    0.0000 H       1  UNL1        0.0328
     20 H           5.5436   -1.1473    0.0000 H       1  UNL1        0.0596
     21 H           5.2156    0.5190    0.0000 H       1  UNL1        0.0296
     22 H           4.4272    0.7766    0.0000 H       1  UNL1        0.0296
     23 H           3.4030   -1.9050    0.0000 H       1  UNL1        0.1056
     24 H           4.3996   -2.5429    0.0000 H       1  UNL1        0.0233
     25 H           5.1815   -2.9396    0.0000 H       1  UNL1        0.0233
     26 H           5.5783   -2.1576    0.0000 H       1  UNL1        0.0233
     27 H           1.4631    0.2150    0.0000 H       1  UNL1        0.1029
     28 H           6.5719   -0.0581    0.0000 H       1  UNL1        0.2098
     29 H           2.3291   -2.9050    0.0000 H       1  UNL1        0.2135
     30 H           2.6200    2.9050    0.0000 H       1  UNL1        0.0661
     31 H           2.0000    3.5250    0.0000 H       1  UNL1        0.0661
     32 H           1.3800    2.9050    0.0000 H       1  UNL1        0.0661
@<TRIPOS>BOND
     1     1    11    1
     2     1    14    1
     3     9     2    1
     4     2    28    1
     5    11     3    1
     6     3    29    1
     7     4    15    1
     8     4    16    1
     9     5    15    2
    10     6     7    1
    11     6     8    1
    12     6    11    1
    13     6    17    1
    14     7    10    1
    15     7    12    1
    16     7    18    1
    17     8     9    1
    18     8    13    1
    19     8    19    1
    20     9    10    1
    21     9    20    1
    22    10    21    1
    23    10    22    1
    24    11    23    1
    25    12    14    2
    26    12    15    1
    27    13    24    1
    28    13    25    1
    29    13    26    1
    30    14    27    1
    31    16    30    1
    32    16    31    1
    33    16    32    1
