@<TRIPOS>MOLECULE
IMPHY001367
 12 12 0 0 0
SMALL
GASTEIGER

@<TRIPOS>ATOM
      1 O           3.3660   -1.8294    0.0000 O.2     1  UNL1       -0.4702
      2 O           3.7320    1.2094    0.0000 O.3     1  UNL1       -0.4771
      3 O           2.0000    1.2094    0.0000 O.2     1  UNL1       -0.2450
      4 C           2.8660   -0.2906    0.0000 C.ar    1  UNL1        0.0964
      5 C           2.0570   -0.8784    0.0000 C.ar    1  UNL1       -0.0099
      6 C           3.6750   -0.8784    0.0000 C.ar    1  UNL1        0.1056
      7 C           2.3660   -1.8294    0.0000 C.ar    1  UNL1        0.0925
      8 C           2.8660    0.7094    0.0000 C.2     1  UNL1        0.3399
      9 H           1.4674   -0.6868    0.0000 H       1  UNL1        0.0657
     10 H           4.2647   -0.6868    0.0000 H       1  UNL1        0.1038
     11 H           2.0016   -2.3310    0.0000 H       1  UNL1        0.1029
     12 H           3.7320    1.8294    0.0000 H       1  UNL1        0.2954
@<TRIPOS>BOND
     1     1     6   ar
     2     1     7   ar
     3     2     8    1
     4     2    12    1
     5     3     8    2
     6     4     5   ar
     7     4     6   ar
     8     4     8    1
     9     5     7   ar
    10     5     9    1
    11     6    10    1
    12     7    11    1
