@<TRIPOS>MOLECULE
IMPHY014353
 108 117 0 0 0
SMALL
GASTEIGER

@<TRIPOS>ATOM
      1 O           7.8163    1.0818    0.0000 O.3     1  UNL1       -0.3374
      2 O           7.8003   -1.9875    0.0000 O.3     1  UNL1       -0.4501
      3 O           9.5705   -0.9906    0.0000 O.3     1  UNL1       -0.4512
      4 O           6.0682   -0.9875    0.0000 O.3     1  UNL1       -0.4488
      5 O           6.0465    1.0440    0.0000 O.3     1  UNL1       -0.3641
      6 O           9.5901    2.0576    0.0000 O.3     1  UNL1       -0.4584
      7 O           6.9343   -1.4875    0.0000 O.2     1  UNL1       -0.2449
      8 O          10.4538    0.4992    0.0000 O.2     1  UNL1       -0.2449
      9 O           6.0682   -2.9875    0.0000 O.2     1  UNL1       -0.2449
     10 O          15.1226   -0.0533    0.0000 O.2     1  UNL1       -0.4178
     11 O          13.5669    3.2779    0.0000 O.2     1  UNL1       -0.4178
     12 O           7.8581    2.0643    0.0000 O.2     1  UNL1       -0.2450
     13 O           5.1804   -5.5190    0.0000 O.3     1  UNL1       -0.5028
     14 O           4.3198   -5.0221    0.0000 O.3     1  UNL1       -0.5028
     15 O          13.9779   -0.6996    0.0000 O.3     1  UNL1       -0.5028
     16 O          10.9090    1.0037    0.0000 O.3     1  UNL1       -0.5028
     17 O           8.7202   -5.5326    0.0000 O.3     1  UNL1       -0.5032
     18 O           6.9464   -6.5568    0.0000 O.3     1  UNL1       -0.5009
     19 O           2.5381   -1.9634    0.0000 O.3     1  UNL1       -0.5032
     20 O           2.5381   -4.0117    0.0000 O.3     1  UNL1       -0.5009
     21 O          12.1395   -3.5205    0.0000 O.3     1  UNL1       -0.5032
     22 O          11.5738    2.8699    0.0000 O.3     1  UNL1       -0.5009
     23 O          13.8830   -2.5406    0.0000 O.3     1  UNL1       -0.5009
     24 O          13.7749   -1.1413    0.0000 O.2     1  UNL1       -0.2445
     25 O          17.0847    0.2494    0.0000 O.3     1  UNL1       -0.5009
     26 O          14.9593    4.3710    0.0000 O.2     1  UNL1       -0.2445
     27 O          17.8224    2.0880    0.0000 O.3     1  UNL1       -0.5032
     28 O          10.4696    5.5542    0.0000 O.3     1  UNL1       -0.5032
     29 O           7.0056    5.5676    0.0000 O.3     1  UNL1       -0.5032
     30 O           8.7415    6.5609    0.0000 O.3     1  UNL1       -0.5009
     31 C           7.8003   -0.9875    0.0000 C.3     1  UNL1        0.1840
     32 C           8.7103   -0.4807    0.0000 C.3     1  UNL1        0.1729
     33 C           6.9343   -0.4875    0.0000 C.3     1  UNL1        0.1938
     34 C           8.7183    0.5609    0.0000 C.3     1  UNL1        0.1361
     35 C           6.9182    0.5540    0.0000 C.3     1  UNL1        0.1981
     36 C           9.5863    1.0576    0.0000 C.3     1  UNL1        0.1226
     37 C           6.9343   -2.4875    0.0000 C.2     1  UNL1        0.3405
     38 C          10.4422   -0.5007    0.0000 C.2     1  UNL1        0.3405
     39 C           6.0682   -1.9875    0.0000 C.2     1  UNL1        0.3406
     40 C           6.9343   -3.4875    0.0000 C.ar    1  UNL1        0.0740
     41 C           5.2022   -2.4875    0.0000 C.ar    1  UNL1        0.0740
     42 C          11.3024   -1.0107    0.0000 C.ar    1  UNL1        0.0740
     43 C           6.0682   -3.9875    0.0000 C.ar    1  UNL1        0.0458
     44 C           5.2022   -3.4875    0.0000 C.ar    1  UNL1        0.0458
     45 C          12.1742   -0.5207    0.0000 C.ar    1  UNL1        0.0458
     46 C          12.5270    0.4150    0.0000 C.ar    1  UNL1        0.0464
     47 C           8.7260    2.5609    0.0000 C.2     1  UNL1        0.3395
     48 C           7.8443   -3.9944    0.0000 C.ar    1  UNL1       -0.0017
     49 C           4.3083   -1.9528    0.0000 C.ar    1  UNL1       -0.0017
     50 C          13.5066    0.5698    0.0000 C.ar    1  UNL1        0.0823
     51 C          11.2909   -2.0106    0.0000 C.ar    1  UNL1       -0.0017
     52 C           6.0522   -5.0290    0.0000 C.ar    1  UNL1        0.1708
     53 C           4.3083   -4.0222    0.0000 C.ar    1  UNL1        0.1708
     54 C          13.8664    1.5029    0.0000 C.ar    1  UNL1        0.0474
     55 C          13.0344   -1.0307    0.0000 C.ar    1  UNL1        0.1708
     56 C          14.8543    1.6578    0.0000 C.ar    1  UNL1        0.0468
     57 C          11.8937    1.1781    0.0000 C.ar    1  UNL1        0.1708
     58 C          13.1996    2.3032    0.0000 C.ar    1  UNL1        0.1854
     59 C           7.8523   -5.0360    0.0000 C.ar    1  UNL1        0.1628
     60 C           6.9502   -5.5568    0.0000 C.ar    1  UNL1        0.2012
     61 C           3.4022   -2.4667    0.0000 C.ar    1  UNL1        0.1628
     62 C           3.4022   -3.5083    0.0000 C.ar    1  UNL1        0.2012
     63 C          12.1510   -2.5206    0.0000 C.ar    1  UNL1        0.1628
     64 C           8.7299    3.5609    0.0000 C.ar    1  UNL1        0.0661
     65 C          13.0228   -2.0306    0.0000 C.ar    1  UNL1        0.2012
     66 C          12.2265    2.1123    0.0000 C.ar    1  UNL1        0.2028
     67 C          15.4824    0.8797    0.0000 C.ar    1  UNL1        0.1854
     68 C          15.2440    2.6238    0.0000 C.ar    1  UNL1        0.0744
     69 C          14.1347   -0.2082    0.0000 C.ar    1  UNL1        0.3460
     70 C          14.5959    3.4393    0.0000 C.ar    1  UNL1        0.3454
     71 C          16.4623    1.0322    0.0000 C.ar    1  UNL1        0.2022
     72 C          16.2288    2.7400    0.0000 C.ar    1  UNL1       -0.0017
     73 C           7.8658    4.0642    0.0000 C.ar    1  UNL1       -0.0023
     74 C           9.5978    4.0576    0.0000 C.ar    1  UNL1       -0.0023
     75 C          16.8316    1.9525    0.0000 C.ar    1  UNL1        0.1628
     76 C           9.6017    5.0576    0.0000 C.ar    1  UNL1        0.1628
     77 C           7.8697    5.0642    0.0000 C.ar    1  UNL1        0.1628
     78 C           8.7376    5.5609    0.0000 C.ar    1  UNL1        0.2006
     79 H           8.5331   -1.4182    0.0000 H       1  UNL1        0.0812
     80 H           8.7019   -1.1006    0.0000 H       1  UNL1        0.0801
     81 H           6.1949   -0.0682    0.0000 H       1  UNL1        0.0825
     82 H           8.7195    1.1809    0.0000 H       1  UNL1        0.0670
     83 H           6.3855    0.2368    0.0000 H       1  UNL1        0.0948
     84 H           9.7961    0.4742    0.0000 H       1  UNL1        0.0725
     85 H          10.1973    1.1629    0.0000 H       1  UNL1        0.0725
     86 H           6.0393    1.6639    0.0000 H       1  UNL1        0.2126
     87 H           8.3776   -3.6782    0.0000 H       1  UNL1        0.0664
     88 H           4.3154   -1.3329    0.0000 H       1  UNL1        0.0664
     89 H          10.7504   -2.3144    0.0000 H       1  UNL1        0.0664
     90 H          16.4703    3.3111    0.0000 H       1  UNL1        0.0664
     91 H           7.3277    3.7563    0.0000 H       1  UNL1        0.0663
     92 H          10.1336    3.7455    0.0000 H       1  UNL1        0.0663
     93 H           5.1733   -6.1389    0.0000 H       1  UNL1        0.2923
     94 H           3.7865   -5.3383    0.0000 H       1  UNL1        0.2923
     95 H          14.4483   -1.1036    0.0000 H       1  UNL1        0.2923
     96 H          10.5102    1.4784    0.0000 H       1  UNL1        0.2923
     97 H           9.2560   -5.2205    0.0000 H       1  UNL1        0.2923
     98 H           7.4821   -6.8688    0.0000 H       1  UNL1        0.2924
     99 H           2.5405   -1.3434    0.0000 H       1  UNL1        0.2923
    100 H           2.0000   -3.7037    0.0000 H       1  UNL1        0.2924
    101 H          11.5990   -3.8243    0.0000 H       1  UNL1        0.2923
    102 H          11.7782    3.4552    0.0000 H       1  UNL1        0.2924
    103 H          13.8758   -3.1606    0.0000 H       1  UNL1        0.2924
    104 H          17.6979    0.3410    0.0000 H       1  UNL1        0.2924
    105 H          18.0568    2.6620    0.0000 H       1  UNL1        0.2923
    106 H          11.0054    5.2422    0.0000 H       1  UNL1        0.2923
    107 H           7.0080    6.1876    0.0000 H       1  UNL1        0.2923
    108 H           9.2796    6.8688    0.0000 H       1  UNL1        0.2924
@<TRIPOS>BOND
     1     1    34    1
     2     1    35    1
     3     2    31    1
     4     2    37    1
     5    32     3    1
     6     3    38    1
     7     4    33    1
     8     4    39    1
     9     5    35    1
    10     5    86    1
    11     6    36    1
    12     6    47    1
    13     7    37    2
    14     8    38    2
    15     9    39    2
    16    10    67   ar
    17    10    69   ar
    18    11    58   ar
    19    11    70   ar
    20    12    47    2
    21    13    52    1
    22    13    93    1
    23    14    53    1
    24    14    94    1
    25    15    55    1
    26    15    95    1
    27    16    57    1
    28    16    96    1
    29    17    59    1
    30    17    97    1
    31    18    60    1
    32    18    98    1
    33    19    61    1
    34    19    99    1
    35    20    62    1
    36    20   100    1
    37    21    63    1
    38    21   101    1
    39    22    66    1
    40    22   102    1
    41    23    65    1
    42    23   103    1
    43    24    69    2
    44    25    71    1
    45    25   104    1
    46    26    70    2
    47    27    75    1
    48    27   105    1
    49    28    76    1
    50    28   106    1
    51    29    77    1
    52    29   107    1
    53    30    78    1
    54    30   108    1
    55    31    32    1
    56    31    33    1
    57    31    79    1
    58    32    34    1
    59    32    80    1
    60    33    35    1
    61    33    81    1
    62    34    36    1
    63    34    82    1
    64    35    83    1
    65    36    84    1
    66    36    85    1
    67    37    40    1
    68    38    42    1
    69    39    41    1
    70    40    43   ar
    71    40    48   ar
    72    41    44   ar
    73    41    49   ar
    74    42    45   ar
    75    42    51   ar
    76    43    44    1
    77    43    52   ar
    78    44    53   ar
    79    45    46    1
    80    45    55   ar
    81    46    50   ar
    82    46    57   ar
    83    47    64    1
    84    48    59   ar
    85    48    87    1
    86    49    61   ar
    87    49    88    1
    88    50    54   ar
    89    50    69   ar
    90    51    63   ar
    91    51    89    1
    92    52    60   ar
    93    53    62   ar
    94    54    56   ar
    95    54    58   ar
    96    55    65   ar
    97    56    67   ar
    98    56    68   ar
    99    57    66   ar
   100    58    66   ar
   101    59    60   ar
   102    61    62   ar
   103    63    65   ar
   104    64    73   ar
   105    64    74   ar
   106    67    71   ar
   107    68    70   ar
   108    68    72   ar
   109    71    75   ar
   110    72    75   ar
   111    72    90    1
   112    73    77   ar
   113    73    91    1
   114    74    76   ar
   115    74    92    1
   116    76    78   ar
   117    77    78   ar
