@<TRIPOS>MOLECULE
IMPHY008824
 19 21 0 0 0
SMALL
GASTEIGER

@<TRIPOS>ATOM
      1 O           5.5301   -2.1754    0.0000 O.2     1  UNL1       -0.2866
      2 O           5.5301    1.8246    0.0000 O.2     1  UNL1       -0.2865
      3 O           7.2785    1.8592    0.0000 O.3     1  UNL1       -0.2830
      4 O           9.0603    0.8488    0.0000 O.3     1  UNL1       -0.2831
      5 C           4.6641   -0.6754    0.0000 C.ar    1  UNL1        0.0417
      6 C           4.6641    0.3246    0.0000 C.ar    1  UNL1        0.0421
      7 C           6.3962    0.3246    0.0000 C.ar    1  UNL1        0.0842
      8 C           6.3962   -0.6754    0.0000 C.ar    1  UNL1        0.0453
      9 C           5.5301   -1.1754    0.0000 C.2     1  UNL1        0.1958
     10 C           5.5301    0.8246    0.0000 C.2     1  UNL1        0.1989
     11 C           3.7702   -1.2101    0.0000 C.ar    1  UNL1       -0.0010
     12 C           7.2901    0.8593    0.0000 C.ar    1  UNL1        0.2373
     13 C           3.7702    0.8593    0.0000 C.ar    1  UNL1        0.0030
     14 C           2.8641   -0.6962    0.0000 C.ar    1  UNL1       -0.0217
     15 C           7.2901   -1.2101    0.0000 C.ar    1  UNL1        0.0068
     16 C           2.8641    0.3454    0.0000 C.ar    1  UNL1       -0.0042
     17 C           8.1962    0.3454    0.0000 C.ar    1  UNL1        0.2344
     18 C           8.1962   -0.6962    0.0000 C.ar    1  UNL1        0.0455
     19 C           2.0000   -1.1995    0.0000 C.3     1  UNL1        0.0310
@<TRIPOS>BOND
     1     1     9    2
     2     2    10    2
     3     3    12    1
     4     4    17    1
     5     5     6   ar
     6     5     9    1
     7     5    11   ar
     8     6    10    1
     9     6    13   ar
    10     7     8   ar
    11     7    10    1
    12     7    12   ar
    13     8     9    1
    14     8    15   ar
    15    11    14   ar
    16    12    17   ar
    17    13    16   ar
    18    14    16   ar
    19    14    19    1
    20    15    18   ar
    21    17    18   ar
