@<TRIPOS>MOLECULE
IMPHY014369
 108 114 0 0 0
SMALL
GASTEIGER

@<TRIPOS>ATOM
      1 O          10.4158    1.3069    0.0000 O.3     1  UNL1       -0.3912
      2 O          12.6001   -2.5334    0.0000 O.3     1  UNL1       -0.4583
      3 O           6.0075   -3.2865    0.0000 O.3     1  UNL1       -0.3449
      4 O          13.9111   -0.7547    0.0000 O.3     1  UNL1       -0.3877
      5 O          11.6796    1.3620    0.0000 O.3     1  UNL1       -0.3672
      6 O           4.2755   -3.2931    0.0000 O.3     1  UNL1       -0.3461
      7 O          14.2506   -2.0080    0.0000 O.2     1  UNL1       -0.2512
      8 O          10.0822    3.5528    0.0000 O.3     1  UNL1       -0.3866
      9 O           5.9998   -1.2865    0.0000 O.3     1  UNL1       -0.3841
     10 O           4.2639   -0.2932    0.0000 O.3     1  UNL1       -0.3864
     11 O           2.5357   -1.2998    0.0000 O.3     1  UNL1       -0.3869
     12 C           9.5376   -1.2623    0.0000 C.3     1  UNL1       -0.0170
     13 C           8.6716   -1.7623    0.0000 C.3     1  UNL1       -0.0192
     14 C           8.6714   -0.7619    0.0000 C.3     1  UNL1       -0.0400
     15 C          10.4037   -1.7623    0.0000 C.3     1  UNL1       -0.0253
     16 C          11.3137   -1.2555    0.0000 C.3     1  UNL1        0.0189
     17 C           8.6716   -2.7623    0.0000 C.3     1  UNL1       -0.0273
     18 C          11.3217   -0.2139    0.0000 C.3     1  UNL1        0.0109
     19 C           9.5216   -0.2208    0.0000 C.3     1  UNL1       -0.0198
     20 C           7.7777   -1.2277    0.0000 C.3     1  UNL1       -0.0442
     21 C          10.4037   -2.7623    0.0000 C.3     1  UNL1       -0.0488
     22 C          10.4196    0.3069    0.0000 C.3     1  UNL1        0.0622
     23 C           9.5376   -3.2623    0.0000 C.3     1  UNL1       -0.0488
     24 C           7.7777   -3.2970    0.0000 C.3     1  UNL1       -0.0052
     25 C          12.3097    0.0959    0.0000 C.3     1  UNL1        0.0257
     26 C          12.2968   -1.5805    0.0000 C.3     1  UNL1        0.1353
     27 C          12.9112   -0.7470    0.0000 C.3     1  UNL1        0.0986
     28 C           6.8716   -1.7415    0.0000 C.3     1  UNL1       -0.0255
     29 C           6.8716   -2.7831    0.0000 C.3     1  UNL1        0.0672
     30 C          11.3060   -2.2554    0.0000 C.3     1  UNL1       -0.0552
     31 C          11.3294    0.7861    0.0000 C.3     1  UNL1       -0.0561
     32 C          12.6277    1.0440    0.0000 C.3     1  UNL1        0.0732
     33 C           7.2877   -4.1687    0.0000 C.3     1  UNL1       -0.0572
     34 C           8.2877   -4.1572    0.0000 C.3     1  UNL1       -0.0572
     35 C          13.2231    1.8475    0.0000 C.3     1  UNL1       -0.0212
     36 C          13.4311    0.4486    0.0000 C.3     1  UNL1       -0.0354
     37 C          12.6430    2.6620    0.0000 C.3     1  UNL1       -0.0213
     38 C          11.6891    2.3620    0.0000 C.3     1  UNL1        0.0876
     39 C           5.1396   -2.7898    0.0000 C.3     1  UNL1        0.1878
     40 C          13.5770   -2.7471    0.0000 C.2     1  UNL1        0.3043
     41 C          10.8856    2.9574    0.0000 C.3     1  UNL1        0.0865
     42 C           5.1357   -1.7898    0.0000 C.3     1  UNL1        0.1341
     43 C          13.8803   -3.7000    0.0000 C.3     1  UNL1        0.0332
     44 C          11.4810    3.7608    0.0000 C.3     1  UNL1       -0.0339
     45 C          10.2902    2.1539    0.0000 C.3     1  UNL1       -0.0339
     46 C           4.2678   -1.2932    0.0000 C.3     1  UNL1        0.1137
     47 C           3.4075   -2.7965    0.0000 C.3     1  UNL1        0.0792
     48 C           3.4037   -1.7965    0.0000 C.3     1  UNL1        0.1069
     49 H           8.8835   -0.1793    0.0000 H       1  UNL1        0.0276
     50 H           8.0608   -0.6543    0.0000 H       1  UNL1        0.0276
     51 H          11.1365   -2.1930    0.0000 H       1  UNL1        0.0313
     52 H           8.6782   -3.6123    0.0000 H       1  UNL1        0.0312
     53 H           9.3036    0.3596    0.0000 H       1  UNL1        0.0296
     54 H           8.9124   -0.3363    0.0000 H       1  UNL1        0.0296
     55 H           8.1823   -0.7579    0.0000 H       1  UNL1        0.0272
     56 H           7.3840   -0.7486    0.0000 H       1  UNL1        0.0272
     57 H          10.6157   -3.3449    0.0000 H       1  UNL1        0.0268
     58 H          11.0143   -2.6547    0.0000 H       1  UNL1        0.0268
     59 H           9.8809    0.6138    0.0000 H       1  UNL1        0.0599
     60 H           9.1391   -3.7373    0.0000 H       1  UNL1        0.0268
     61 H           9.9362   -3.7373    0.0000 H       1  UNL1        0.0268
     62 H          13.1504    0.2213    0.0000 H       1  UNL1        0.0361
     63 H          12.9085   -1.6814    0.0000 H       1  UNL1        0.0766
     64 H          13.1971   -0.1968    0.0000 H       1  UNL1        0.0634
     65 H           6.6626   -1.1578    0.0000 H       1  UNL1        0.0290
     66 H           6.2608   -1.8476    0.0000 H       1  UNL1        0.0290
     67 H           6.3341   -2.4742    0.0000 H       1  UNL1        0.0602
     68 H          10.6860   -2.2507    0.0000 H       1  UNL1        0.0237
     69 H          11.3012   -2.8754    0.0000 H       1  UNL1        0.0237
     70 H          11.9259   -2.2602    0.0000 H       1  UNL1        0.0237
     71 H          11.9494    0.7813    0.0000 H       1  UNL1        0.0236
     72 H          11.3342    1.4061    0.0000 H       1  UNL1        0.0236
     73 H          10.7094    0.7909    0.0000 H       1  UNL1        0.0236
     74 H           6.7472   -3.8650    0.0000 H       1  UNL1        0.0236
     75 H           6.9840   -4.7092    0.0000 H       1  UNL1        0.0236
     76 H           7.8282   -4.4725    0.0000 H       1  UNL1        0.0236
     77 H           7.7544   -4.4734    0.0000 H       1  UNL1        0.0236
     78 H           8.6038   -4.6905    0.0000 H       1  UNL1        0.0236
     79 H           8.8210   -3.8410    0.0000 H       1  UNL1        0.0236
     80 H           9.8776    1.6149    0.0000 H       1  UNL1        0.2098
     81 H          13.6799    1.4283    0.0000 H       1  UNL1        0.0294
     82 H          13.6878    2.2580    0.0000 H       1  UNL1        0.0294
     83 H          14.2170   -1.2940    0.0000 H       1  UNL1        0.2100
     84 H          13.0620   -0.0495    0.0000 H       1  UNL1        0.0257
     85 H          13.9293    0.0795    0.0000 H       1  UNL1        0.0257
     86 H          13.8003    0.9468    0.0000 H       1  UNL1        0.0257
     87 H          13.1828    2.9669    0.0000 H       1  UNL1        0.0292
     88 H          12.3962    3.2308    0.0000 H       1  UNL1        0.0292
     89 H          11.1340    2.0857    0.0000 H       1  UNL1        0.0625
     90 H           5.6753   -2.4777    0.0000 H       1  UNL1        0.0937
     91 H           5.1333   -1.1698    0.0000 H       1  UNL1        0.0671
     92 H          13.2896   -3.8881    0.0000 H       1  UNL1        0.0342
     93 H          14.0684   -4.2908    0.0000 H       1  UNL1        0.0342
     94 H          14.4711   -3.5120    0.0000 H       1  UNL1        0.0342
     95 H          11.9791    3.3917    0.0000 H       1  UNL1        0.0258
     96 H          11.8502    4.2589    0.0000 H       1  UNL1        0.0258
     97 H          10.9829    4.1300    0.0000 H       1  UNL1        0.0258
     98 H           9.7921    2.5231    0.0000 H       1  UNL1        0.0258
     99 H           9.9211    1.6558    0.0000 H       1  UNL1        0.0258
    100 H          10.7884    1.7848    0.0000 H       1  UNL1        0.0258
    101 H           3.7296   -0.9852    0.0000 H       1  UNL1        0.0647
    102 H          10.1528    4.1687    0.0000 H       1  UNL1        0.2102
    103 H           2.7966   -2.6912    0.0000 H       1  UNL1        0.0587
    104 H           3.1977   -3.3799    0.0000 H       1  UNL1        0.0587
    105 H           2.8680   -2.1086    0.0000 H       1  UNL1        0.0643
    106 H           5.9974   -0.6665    0.0000 H       1  UNL1        0.2101
    107 H           3.7258    0.0148    0.0000 H       1  UNL1        0.2100
    108 H           2.0000   -1.6119    0.0000 H       1  UNL1        0.2100
@<TRIPOS>BOND
     1    22     1    1
     2     1    80    1
     3    26     2    1
     4     2    40    1
     5    29     3    1
     6    39     3    1
     7    27     4    1
     8     4    83    1
     9     5    32    1
    10     5    38    1
    11     6    39    1
    12     6    47    1
    13     7    40    2
    14     8    41    1
    15     8   102    1
    16    42     9    1
    17     9   106    1
    18    46    10    1
    19    10   107    1
    20    48    11    1
    21    11   108    1
    22    12    13    1
    23    12    14    1
    24    12    15    1
    25    12    19    1
    26    13    14    1
    27    13    17    1
    28    13    20    1
    29    14    49    1
    30    14    50    1
    31    15    16    1
    32    15    21    1
    33    15    51    1
    34    16    18    1
    35    16    26    1
    36    16    30    1
    37    17    23    1
    38    17    24    1
    39    17    52    1
    40    18    22    1
    41    18    25    1
    42    18    31    1
    43    19    22    1
    44    19    53    1
    45    19    54    1
    46    20    28    1
    47    20    55    1
    48    20    56    1
    49    21    23    1
    50    21    57    1
    51    21    58    1
    52    22    59    1
    53    23    60    1
    54    23    61    1
    55    24    29    1
    56    24    33    1
    57    24    34    1
    58    25    27    1
    59    25    32    1
    60    25    62    1
    61    26    27    1
    62    26    63    1
    63    27    64    1
    64    28    29    1
    65    28    65    1
    66    28    66    1
    67    29    67    1
    68    30    68    1
    69    30    69    1
    70    30    70    1
    71    31    71    1
    72    31    72    1
    73    31    73    1
    74    32    35    1
    75    32    36    1
    76    33    74    1
    77    33    75    1
    78    33    76    1
    79    34    77    1
    80    34    78    1
    81    34    79    1
    82    35    37    1
    83    35    81    1
    84    35    82    1
    85    36    84    1
    86    36    85    1
    87    36    86    1
    88    37    38    1
    89    37    87    1
    90    37    88    1
    91    38    41    1
    92    38    89    1
    93    39    42    1
    94    39    90    1
    95    40    43    1
    96    41    44    1
    97    41    45    1
    98    42    46    1
    99    42    91    1
   100    43    92    1
   101    43    93    1
   102    43    94    1
   103    44    95    1
   104    44    96    1
   105    44    97    1
   106    45    98    1
   107    45    99    1
   108    45   100    1
   109    46    48    1
   110    46   101    1
   111    47    48    1
   112    47   103    1
   113    47   104    1
   114    48   105    1
