@<TRIPOS>MOLECULE
IMPHY004625
 22 21 0 0 0
SMALL
GASTEIGER

@<TRIPOS>ATOM
      1 S1          6.0010   -0.0950    0.0000 S.O     1  <1>         0.0483
      2 O1          2.5369   -0.0950    0.0000 O.3     1  <1>        -0.4795
      3 O2          6.0010   -1.0950    0.0000 O.2     1  <1>        -0.2526
      4 O3          3.4030    1.4050    0.0000 O.2     1  <1>        -0.2492
      5 N1          4.2690   -1.0950    0.0000 N.3     1  <1>        -0.3177
      6 C1          4.2690   -0.0950    0.0000 C.3     1  <1>         0.1149
      7 C2          5.1350    0.4050    0.0000 C.3     1  <1>         0.0529
      8 C3          3.4030    0.4050    0.0000 C.2     1  <1>         0.3226
      9 C4          6.8671    0.4050    0.0000 C.2     1  <1>        -0.0017
     10 C5          7.7331   -0.0950    0.0000 C.2     1  <1>        -0.0785
     11 C6          8.5991    0.4050    0.0000 C.3     1  <1>        -0.0460
     12 H1          4.8059   -0.4050    0.0000 H       1  <1>         0.0583
     13 H2          5.5335    0.8799    0.0000 H       1  <1>         0.0425
     14 H3          4.7365    0.8799    0.0000 H       1  <1>         0.0425
     15 H4          3.7320   -1.4050    0.0000 H       1  <1>         0.1190
     16 H5          4.8059   -1.4050    0.0000 H       1  <1>         0.1190
     17 H6          6.8671    1.0250    0.0000 H       1  <1>         0.0711
     18 H7          7.7331   -0.7150    0.0000 H       1  <1>         0.0575
     19 H8          8.9091   -0.1319    0.0000 H       1  <1>         0.0272
     20 H9          9.1360    0.7150    0.0000 H       1  <1>         0.0272
     21 H10         8.2891    0.9419    0.0000 H       1  <1>         0.0272
     22 H11         2.0000    0.2150    0.0000 H       1  <1>         0.2951
@<TRIPOS>BOND
     1     1     3    2
     2     1     7    1
     3     1     9    1
     4     2     8    1
     5     2    22    1
     6     4     8    2
     7     6     5    1
     8     5    15    1
     9     5    16    1
    10     6     7    1
    11     6     8    1
    12     6    12    1
    13     7    13    1
    14     7    14    1
    15     9    10    2
    16     9    17    1
    17    10    11    1
    18    10    18    1
    19    11    19    1
    20    11    20    1
    21    11    21    1
