@<TRIPOS>MOLECULE
IMPHY017736
 17 16 0 0 0
SMALL
GASTEIGER

@<TRIPOS>ATOM
      1 S           3.7320    0.2500    0.0000 S.3     1  UNL1       -0.0821
      2 S           5.4641    0.2500    0.0000 S.3     1  UNL1       -0.0821
      3 S           4.5981   -0.2500    0.0000 S.3     1  UNL1       -0.0243
      4 C           2.8660   -0.2500    0.0000 C.3     1  UNL1        0.0019
      5 C           6.3301   -0.2500    0.0000 C.3     1  UNL1        0.0019
      6 C           2.0000    0.2500    0.0000 C.3     1  UNL1       -0.0554
      7 C           7.1962    0.2500    0.0000 C.3     1  UNL1       -0.0554
      8 H           2.4675   -0.7249    0.0000 H       1  UNL1        0.0382
      9 H           3.2646   -0.7249    0.0000 H       1  UNL1        0.0382
     10 H           5.9316   -0.7249    0.0000 H       1  UNL1        0.0382
     11 H           6.7287   -0.7249    0.0000 H       1  UNL1        0.0382
     12 H           2.3100    0.7869    0.0000 H       1  UNL1        0.0238
     13 H           1.4631    0.5600    0.0000 H       1  UNL1        0.0238
     14 H           1.6900   -0.2869    0.0000 H       1  UNL1        0.0238
     15 H           7.5062   -0.2869    0.0000 H       1  UNL1        0.0238
     16 H           7.7331    0.5600    0.0000 H       1  UNL1        0.0238
     17 H           6.8862    0.7869    0.0000 H       1  UNL1        0.0238
@<TRIPOS>BOND
     1     1     3    1
     2     1     4    1
     3     2     3    1
     4     2     5    1
     5     4     6    1
     6     4     8    1
     7     4     9    1
     8     5     7    1
     9     5    10    1
    10     5    11    1
    11     6    12    1
    12     6    13    1
    13     6    14    1
    14     7    15    1
    15     7    16    1
    16     7    17    1
