@<TRIPOS>MOLECULE
IMPHY015513
 42 43 0 0 0
SMALL
GASTEIGER

@<TRIPOS>ATOM
      1 O           7.7204    0.0204    0.0000 O.3     1  UNL1       -0.3888
      2 C           4.1881    0.5028    0.0000 C.3     1  UNL1       -0.0316
      3 C           4.1931   -0.4972    0.0000 C.3     1  UNL1       -0.0167
      4 C           5.7204    0.0104    0.0000 C.3     1  UNL1       -0.0118
      5 C           5.1328    0.8122    0.0000 C.3     1  UNL1       -0.0440
      6 C           5.1408   -0.7972    0.0000 C.3     1  UNL1       -0.0408
      7 C           3.4032    1.1224    0.0000 C.3     1  UNL1       -0.0405
      8 C           6.7204    0.0154    0.0000 C.3     1  UNL1        0.0634
      9 C           3.4144   -1.1246    0.0000 C.2     1  UNL1       -0.0732
     10 C           2.4294    0.8950    0.0000 C.3     1  UNL1       -0.0499
     11 C           2.4384   -0.9069    0.0000 C.3     1  UNL1       -0.0317
     12 C           2.0000   -0.0081    0.0000 C.3     1  UNL1       -0.0491
     13 C           3.6208    2.0984    0.0000 C.3     1  UNL1       -0.0621
     14 C           6.7254   -0.9846    0.0000 C.3     1  UNL1       -0.0361
     15 C           6.7154    1.0154    0.0000 C.3     1  UNL1       -0.0361
     16 C           3.6418   -2.0984    0.0000 C.2     1  UNL1       -0.0992
     17 H           4.6910    0.1402    0.0000 H       1  UNL1        0.0309
     18 H           4.3076   -1.1065    0.0000 H       1  UNL1        0.0348
     19 H           6.0049   -0.5405    0.0000 H       1  UNL1        0.0329
     20 H           5.6686    1.1241    0.0000 H       1  UNL1        0.0272
     21 H           4.8790    1.3779    0.0000 H       1  UNL1        0.0272
     22 H           4.8926   -1.3654    0.0000 H       1  UNL1        0.0275
     23 H           5.6798   -1.1038    0.0000 H       1  UNL1        0.0275
     24 H           3.9874    1.3300    0.0000 H       1  UNL1        0.0301
     25 H           2.4263    1.5150    0.0000 H       1  UNL1        0.0268
     26 H           1.8242    1.0299    0.0000 H       1  UNL1        0.0268
     27 H           1.8346   -1.0479    0.0000 H       1  UNL1        0.0310
     28 H           2.4415   -1.5269    0.0000 H       1  UNL1        0.0310
     29 H           1.5133    0.3760    0.0000 H       1  UNL1        0.0268
     30 H           1.5172   -0.3971    0.0000 H       1  UNL1        0.0268
     31 H           4.2260    1.9634    0.0000 H       1  UNL1        0.0233
     32 H           3.7558    2.7035    0.0000 H       1  UNL1        0.0233
     33 H           3.0157    2.2333    0.0000 H       1  UNL1        0.0233
     34 H           6.1054   -0.9877    0.0000 H       1  UNL1        0.0257
     35 H           6.7285   -1.6046    0.0000 H       1  UNL1        0.0257
     36 H           7.3454   -0.9815    0.0000 H       1  UNL1        0.0257
     37 H           7.3354    1.0185    0.0000 H       1  UNL1        0.0257
     38 H           6.7123    1.6354    0.0000 H       1  UNL1        0.0257
     39 H           6.0954    1.0123    0.0000 H       1  UNL1        0.0257
     40 H           3.1894   -2.5224    0.0000 H       1  UNL1        0.0534
     41 H           4.2351   -2.2782    0.0000 H       1  UNL1        0.0534
     42 H           8.0331   -0.5150    0.0000 H       1  UNL1        0.2101
@<TRIPOS>BOND
     1     1     8    1
     2     1    42    1
     3     2     3    1
     4     2     5    1
     5     2     7    1
     6     2    17    1
     7     3     6    1
     8     3     9    1
     9     3    18    1
    10     4     5    1
    11     4     6    1
    12     4     8    1
    13     4    19    1
    14     5    20    1
    15     5    21    1
    16     6    22    1
    17     6    23    1
    18     7    10    1
    19     7    13    1
    20     7    24    1
    21     8    14    1
    22     8    15    1
    23     9    11    1
    24     9    16    2
    25    10    12    1
    26    10    25    1
    27    10    26    1
    28    11    12    1
    29    11    27    1
    30    11    28    1
    31    12    29    1
    32    12    30    1
    33    13    31    1
    34    13    32    1
    35    13    33    1
    36    14    34    1
    37    14    35    1
    38    14    36    1
    39    15    37    1
    40    15    38    1
    41    15    39    1
    42    16    40    1
    43    16    41    1
