@<TRIPOS>MOLECULE
IMPHY006131
 30 33 0 0 0
SMALL
GASTEIGER

@<TRIPOS>ATOM
      1 O           5.6783   -0.7438    0.0000 O.2     1  UNL1       -0.4536
      2 O           7.8223    1.3247    0.0000 O.2     1  UNL1       -0.4213
      3 O           7.0911   -2.1004    0.0000 O.3     1  UNL1       -0.5058
      4 O           6.5352    2.4836    0.0000 O.2     1  UNL1       -0.2444
      5 O           2.8182    2.1031    0.0000 O.3     1  UNL1       -0.5033
      6 O           2.1888    0.1604    0.0000 O.3     1  UNL1       -0.5032
      7 O          10.4619   -1.0195    0.0000 O.3     1  UNL1       -0.5065
      8 C           6.1750    0.7894    0.0000 C.ar    1  UNL1        0.1131
      9 C           6.4840   -0.1616    0.0000 C.ar    1  UNL1        0.1573
     10 C           5.1810    0.7868    0.0000 C.ar    1  UNL1        0.0385
     11 C           7.4622   -0.3695    0.0000 C.ar    1  UNL1        0.1019
     12 C           4.8746   -0.1588    0.0000 C.ar    1  UNL1        0.1402
     13 C           8.1313    0.3736    0.0000 C.ar    1  UNL1        0.1496
     14 C           6.8442    1.5326    0.0000 C.ar    1  UNL1        0.3488
     15 C           4.4994    1.5664    0.0000 C.ar    1  UNL1       -0.0050
     16 C           7.7688   -1.3650    0.0000 C.ar    1  UNL1        0.1345
     17 C           3.8654   -0.3906    0.0000 C.ar    1  UNL1        0.0264
     18 C           9.1534    0.1728    0.0000 C.ar    1  UNL1        0.0232
     19 C           3.4851    1.3580    0.0000 C.ar    1  UNL1        0.1590
     20 C           3.1660    0.3729    0.0000 C.ar    1  UNL1        0.1618
     21 C           8.7859   -1.5894    0.0000 C.ar    1  UNL1        0.0223
     22 C           9.4829   -0.8154    0.0000 C.ar    1  UNL1        0.1239
     23 H           4.6973    2.1539    0.0000 H       1  UNL1        0.0662
     24 H           3.6812   -0.9826    0.0000 H       1  UNL1        0.0692
     25 H           9.5629    0.6383    0.0000 H       1  UNL1        0.0691
     26 H           8.9753   -2.1798    0.0000 H       1  UNL1        0.0691
     27 H           7.2758   -2.6922    0.0000 H       1  UNL1        0.2922
     28 H           3.0115    2.6922    0.0000 H       1  UNL1        0.2923
     29 H           2.0000   -0.4301    0.0000 H       1  UNL1        0.2923
     30 H          10.8749   -0.5572    0.0000 H       1  UNL1        0.2921
@<TRIPOS>BOND
     1     1     9   ar
     2     1    12   ar
     3     2    13   ar
     4     2    14   ar
     5     3    16    1
     6     3    27    1
     7     4    14    2
     8     5    19    1
     9     5    28    1
    10     6    20    1
    11     6    29    1
    12     7    22    1
    13     7    30    1
    14     8     9   ar
    15     8    10   ar
    16     8    14   ar
    17     9    11   ar
    18    10    12   ar
    19    10    15   ar
    20    11    13   ar
    21    11    16   ar
    22    12    17   ar
    23    13    18   ar
    24    15    19   ar
    25    15    23    1
    26    16    21   ar
    27    17    20   ar
    28    17    24    1
    29    18    22   ar
    30    18    25    1
    31    19    20   ar
    32    21    22   ar
    33    21    26    1
