@<TRIPOS>MOLECULE
IMPHY002419
 103 111 0 0 0
SMALL
GASTEIGER

@<TRIPOS>ATOM
      1 O          10.6287   -4.2974    0.0000 O.3     1  UNL1       -0.4527
      2 O          11.7258   -2.5627    0.0000 O.3     1  UNL1       -0.3523
      3 O          12.2776   -4.2390    0.0000 O.3     1  UNL1       -0.3747
      4 O          10.0944    0.2722    0.0000 O.3     1  UNL1       -0.4478
      5 O           7.5699   -1.4668    0.0000 O.3     1  UNL1       -0.3281
      6 O           7.0843   -1.3642    0.0000 O.3     1  UNL1       -0.4512
      7 O           8.2960    1.3546    0.0000 O.3     1  UNL1       -0.4500
      8 O          13.5774   -2.0881    0.0000 O.2     1  UNL1       -0.2893
      9 O           9.9357   -0.7828    0.0000 O.3     1  UNL1       -0.4275
     10 O           9.2644   -5.9537    0.0000 O.3     1  UNL1       -0.5009
     11 O          11.6044   -0.0686    0.0000 O.2     1  UNL1       -0.2453
     12 O           4.6912    0.3887    0.0000 O.3     1  UNL1       -0.4584
     13 O           7.1712   -5.5708    0.0000 O.3     1  UNL1       -0.5032
     14 O           6.6394   -2.9659    0.0000 O.2     1  UNL1       -0.2449
     15 O          12.3832   -5.2334    0.0000 O.2     1  UNL1       -0.2976
     16 O           8.9032    2.8206    0.0000 O.2     1  UNL1       -0.2449
     17 O          10.5781    0.9121    0.0000 O.2     1  UNL1       -0.2449
     18 O           3.4323    1.3546    0.0000 O.2     1  UNL1       -0.2449
     19 O           5.1680    4.7004    0.0000 O.3     1  UNL1       -0.5028
     20 O           5.7272    4.8503    0.0000 O.3     1  UNL1       -0.5028
     21 O           8.5259    5.4653    0.0000 O.3     1  UNL1       -0.5032
     22 O           6.5474    5.9955    0.0000 O.3     1  UNL1       -0.5009
     23 O           2.4367    3.8337    0.0000 O.3     1  UNL1       -0.5032
     24 O           3.8851    5.2821    0.0000 O.3     1  UNL1       -0.5009
     25 O          11.5928    3.2488    0.0000 O.3     1  UNL1       -0.5032
     26 O          14.0097    0.7672    0.0000 O.3     1  UNL1       -0.5032
     27 O          13.5177    2.7057    0.0000 O.3     1  UNL1       -0.5009
     28 C          11.0888   -3.3336    0.0000 C.3     1  UNL1        0.2582
     29 C          10.3157   -2.5968    0.0000 C.3     1  UNL1        0.0889
     30 C          12.1720   -3.2446    0.0000 C.3     1  UNL1        0.2001
     31 C           9.3718   -3.1100    0.0000 C.ar    1  UNL1        0.0262
     32 C          10.8288   -1.6530    0.0000 C.2     1  UNL1        0.0538
     33 C           9.5697   -4.1594    0.0000 C.ar    1  UNL1        0.1740
     34 C          12.5892   -2.2410    0.0000 C.2     1  UNL1        0.1948
     35 C          13.0860   -3.6504    0.0000 C.3     1  UNL1        0.0480
     36 C           7.3301   -0.3184    0.0000 C.3     1  UNL1        0.1730
     37 C           8.0372    0.3887    0.0000 C.3     1  UNL1        0.1851
     38 C           9.0830    0.6345    0.0000 C.3     1  UNL1        0.2053
     39 C          11.8882   -1.4104    0.0000 C.2     1  UNL1       -0.0053
     40 C           8.3006   -3.0274    0.0000 C.ar    1  UNL1        0.0701
     41 C           6.3642   -0.5772    0.0000 C.3     1  UNL1        0.1371
     42 C          10.7462   -0.5818    0.0000 C.2     1  UNL1        0.3366
     43 C           8.9385   -0.8568    0.0000 C.3     1  UNL1        0.2465
     44 C           8.9060   -5.0201    0.0000 C.ar    1  UNL1        0.2013
     45 C           7.4466   -2.3756    0.0000 C.2     1  UNL1        0.3402
     46 C           7.5210   -3.7846    0.0000 C.ar    1  UNL1       -0.0020
     47 C          13.1916   -4.6448    0.0000 C.2     1  UNL1        0.1337
     48 C           7.8369   -4.8245    0.0000 C.ar    1  UNL1        0.1628
     49 C           5.3982   -0.3184    0.0000 C.3     1  UNL1        0.1226
     50 C          14.1056   -5.0505    0.0000 C.3     1  UNL1       -0.0059
     51 C           8.0372    2.3206    0.0000 C.2     1  UNL1        0.3405
     52 C          10.6521   -0.0851    0.0000 C.2     1  UNL1        0.3417
     53 C           7.3301    3.0277    0.0000 C.ar    1  UNL1        0.0740
     54 C           4.4323    1.3546    0.0000 C.2     1  UNL1        0.3401
     55 C           6.3642    3.2865    0.0000 C.ar    1  UNL1        0.0458
     56 C           4.6912    2.3206    0.0000 C.ar    1  UNL1        0.0740
     57 C           5.3982    3.0277    0.0000 C.ar    1  UNL1        0.0458
     58 C          11.3685    0.6126    0.0000 C.ar    1  UNL1        0.0662
     59 C           8.0779    3.7528    0.0000 C.ar    1  UNL1       -0.0017
     60 C           6.0791    4.2883    0.0000 C.ar    1  UNL1        0.1708
     61 C           3.6810    2.5746    0.0000 C.ar    1  UNL1       -0.0017
     62 C           5.1442    4.0378    0.0000 C.ar    1  UNL1        0.1708
     63 C           7.8161    4.7609    0.0000 C.ar    1  UNL1        0.1628
     64 C           6.8100    5.0305    0.0000 C.ar    1  UNL1        0.2012
     65 C          12.3309    0.3410    0.0000 C.ar    1  UNL1       -0.0023
     66 C          11.1225    1.5818    0.0000 C.ar    1  UNL1       -0.0023
     67 C           3.4036    3.5786    0.0000 C.ar    1  UNL1        0.1628
     68 C           4.1402    4.3152    0.0000 C.ar    1  UNL1        0.2012
     69 C          11.8389    2.2795    0.0000 C.ar    1  UNL1        0.1628
     70 C          13.0473    1.0387    0.0000 C.ar    1  UNL1        0.1628
     71 C          12.8013    2.0080    0.0000 C.ar    1  UNL1        0.2006
     72 H           9.9097   -3.3436    0.0000 H       1  UNL1        0.0466
     73 H          13.7045   -3.6930    0.0000 H       1  UNL1        0.0376
     74 H          13.2353   -3.0486    0.0000 H       1  UNL1        0.0376
     75 H           6.7291   -0.9194    0.0000 H       1  UNL1        0.0801
     76 H           8.6382    0.9897    0.0000 H       1  UNL1        0.0813
     77 H           9.6424    1.2746    0.0000 H       1  UNL1        0.0837
     78 H          12.0846   -0.8224    0.0000 H       1  UNL1        0.0658
     79 H           5.9954   -1.3431    0.0000 H       1  UNL1        0.0670
     80 H          11.5094   -1.9817    0.0000 H       1  UNL1        0.2139
     81 H           9.3008   -0.3537    0.0000 H       1  UNL1        0.1098
     82 H          11.7764   -4.6040    0.0000 H       1  UNL1        0.2110
     83 H           6.9207   -3.6297    0.0000 H       1  UNL1        0.0663
     84 H           4.8363   -0.5804    0.0000 H       1  UNL1        0.0725
     85 H           5.7082    0.2185    0.0000 H       1  UNL1        0.0725
     86 H          13.8540   -5.6172    0.0000 H       1  UNL1        0.0306
     87 H          14.6722   -5.3021    0.0000 H       1  UNL1        0.0306
     88 H          14.3571   -4.4839    0.0000 H       1  UNL1        0.0306
     89 H           8.8742   -6.4356    0.0000 H       1  UNL1        0.2924
     90 H           6.5642   -5.4447    0.0000 H       1  UNL1        0.2923
     91 H           8.6749    3.5854    0.0000 H       1  UNL1        0.0664
     92 H           3.2477    2.1312    0.0000 H       1  UNL1        0.0664
     93 H          12.4835   -0.2599    0.0000 H       1  UNL1        0.0663
     94 H          10.5258    1.7502    0.0000 H       1  UNL1        0.0663
     95 H           4.8995    5.2593    0.0000 H       1  UNL1        0.2923
     96 H           5.6803    5.4685    0.0000 H       1  UNL1        0.2923
     97 H           9.1242    5.3025    0.0000 H       1  UNL1        0.2923
     98 H           6.9841    6.4356    0.0000 H       1  UNL1        0.2924
     99 H           2.0000    3.3936    0.0000 H       1  UNL1        0.2923
    100 H           3.2868    5.4449    0.0000 H       1  UNL1        0.2924
    101 H          12.0370    3.6814    0.0000 H       1  UNL1        0.2923
    102 H          14.4539    1.1997    0.0000 H       1  UNL1        0.2923
    103 H          14.1144    2.5373    0.0000 H       1  UNL1        0.2924
@<TRIPOS>BOND
     1     1    28    1
     2     1    33    1
     3    28     2    1
     4     2    80    1
     5    30     3    1
     6     3    82    1
     7     4    38    1
     8     4    42    1
     9     5    41    1
    10     5    43    1
    11     6    36    1
    12     6    45    1
    13     7    37    1
    14     7    51    1
    15     8    34    2
    16    43     9    1
    17     9    52    1
    18    10    44    1
    19    10    89    1
    20    11    42    2
    21    12    49    1
    22    12    54    1
    23    13    48    1
    24    13    90    1
    25    14    45    2
    26    15    47    2
    27    16    51    2
    28    17    52    2
    29    18    54    2
    30    19    60    1
    31    19    95    1
    32    20    62    1
    33    20    96    1
    34    21    63    1
    35    21    97    1
    36    22    64    1
    37    22    98    1
    38    23    67    1
    39    23    99    1
    40    24    68    1
    41    24   100    1
    42    25    69    1
    43    25   101    1
    44    26    70    1
    45    26   102    1
    46    27    71    1
    47    27   103    1
    48    28    29    1
    49    28    30    1
    50    29    31    1
    51    29    32    1
    52    29    72    1
    53    30    34    1
    54    30    35    1
    55    31    33   ar
    56    31    40   ar
    57    32    39    2
    58    32    42    1
    59    33    44   ar
    60    34    39    1
    61    35    47    1
    62    35    73    1
    63    35    74    1
    64    36    37    1
    65    36    41    1
    66    36    75    1
    67    37    38    1
    68    37    76    1
    69    38    43    1
    70    38    77    1
    71    39    78    1
    72    40    45    1
    73    40    46   ar
    74    41    49    1
    75    41    79    1
    76    43    81    1
    77    44    48   ar
    78    46    48   ar
    79    46    83    1
    80    47    50    1
    81    49    84    1
    82    49    85    1
    83    50    86    1
    84    50    87    1
    85    50    88    1
    86    51    53    1
    87    52    58    1
    88    53    55   ar
    89    53    59   ar
    90    54    56    1
    91    55    57    1
    92    55    60   ar
    93    56    57   ar
    94    56    61   ar
    95    57    62   ar
    96    58    65   ar
    97    58    66   ar
    98    59    63   ar
    99    59    91    1
   100    60    64   ar
   101    61    67   ar
   102    61    92    1
   103    62    68   ar
   104    63    64   ar
   105    65    70   ar
   106    65    93    1
   107    66    69   ar
   108    66    94    1
   109    67    68   ar
   110    69    71   ar
   111    70    71   ar
