@<TRIPOS>MOLECULE
IMPHY004403
 36 37 0 0 0
SMALL
GASTEIGER

@<TRIPOS>ATOM
      1 O           4.2690   -3.8100    0.0000 O.3     1  UNL1       -0.4943
      2 O           2.5369   -0.8100    0.0000 O.3     1  UNL1       -0.5059
      3 O           3.4030    0.6900    0.0000 O.2     1  UNL1       -0.2872
      4 O           8.5991    3.6900    0.0000 O.3     1  UNL1       -0.5068
      5 O           6.8671   -2.3100    0.0000 O.2     1  UNL1       -0.2956
      6 C           4.2690   -0.8100    0.0000 C.ar    1  UNL1        0.0639
      7 C           5.1350   -2.3100    0.0000 C.ar    1  UNL1        0.0567
      8 C           5.1350   -1.3100    0.0000 C.ar    1  UNL1       -0.0337
      9 C           3.4030   -1.3100    0.0000 C.ar    1  UNL1        0.1311
     10 C           4.2690   -2.8100    0.0000 C.ar    1  UNL1        0.1338
     11 C           3.4030   -2.3100    0.0000 C.ar    1  UNL1        0.0229
     12 C           4.2690    0.1900    0.0000 C.2     1  UNL1        0.1896
     13 C           6.0010    2.1900    0.0000 C.ar    1  UNL1       -0.0247
     14 C           5.1350    0.6900    0.0000 C.2     1  UNL1       -0.0137
     15 C           5.1350    1.6900    0.0000 C.2     1  UNL1       -0.0510
     16 C           6.8671    1.6900    0.0000 C.ar    1  UNL1       -0.0511
     17 C           6.0010    3.1900    0.0000 C.ar    1  UNL1       -0.0511
     18 C           6.0010   -2.8100    0.0000 C.2     1  UNL1        0.1537
     19 C           7.7331    2.1900    0.0000 C.ar    1  UNL1       -0.0196
     20 C           6.8671    3.6900    0.0000 C.ar    1  UNL1       -0.0196
     21 C           7.7331    3.1900    0.0000 C.ar    1  UNL1        0.1169
     22 C           3.4030   -4.3100    0.0000 C.3     1  UNL1        0.0788
     23 H           5.6720   -1.0000    0.0000 H       1  UNL1        0.0634
     24 H           2.8660   -2.6200    0.0000 H       1  UNL1        0.0691
     25 H           5.6720    0.3800    0.0000 H       1  UNL1        0.0656
     26 H           4.5981    2.0000    0.0000 H       1  UNL1        0.0625
     27 H           6.8671    1.0700    0.0000 H       1  UNL1        0.0625
     28 H           5.4641    3.5000    0.0000 H       1  UNL1        0.0625
     29 H           6.0010   -3.4300    0.0000 H       1  UNL1        0.1083
     30 H           8.2700    1.8800    0.0000 H       1  UNL1        0.0654
     31 H           6.8671    4.3100    0.0000 H       1  UNL1        0.0654
     32 H           2.0000   -1.1200    0.0000 H       1  UNL1        0.2922
     33 H           3.0930   -3.7731    0.0000 H       1  UNL1        0.0660
     34 H           2.8660   -4.6200    0.0000 H       1  UNL1        0.0660
     35 H           3.7130   -4.8469    0.0000 H       1  UNL1        0.0660
     36 H           8.5991    4.3100    0.0000 H       1  UNL1        0.2921
@<TRIPOS>BOND
     1     1    10    1
     2     1    22    1
     3     2     9    1
     4     2    32    1
     5     3    12    2
     6     4    21    1
     7     4    36    1
     8     5    18    2
     9     6     8   ar
    10     6     9   ar
    11     6    12    1
    12     7     8   ar
    13     7    10   ar
    14     7    18    1
    15     8    23    1
    16     9    11   ar
    17    10    11   ar
    18    11    24    1
    19    12    14    1
    20    13    15    1
    21    13    16   ar
    22    13    17   ar
    23    14    15    2
    24    14    25    1
    25    15    26    1
    26    16    19   ar
    27    16    27    1
    28    17    20   ar
    29    17    28    1
    30    18    29    1
    31    19    21   ar
    32    19    30    1
    33    20    21   ar
    34    20    31    1
    35    22    33    1
    36    22    34    1
    37    22    35    1
