@<TRIPOS>MOLECULE
IMPHY004810
 147 155 0 0 0
SMALL
GASTEIGER

@<TRIPOS>ATOM
      1 O          11.2635    6.0666    0.0000 O.3     1  UNL1       -0.3476
      2 O          10.4194    7.6114    0.0000 O.3     1  UNL1       -0.3409
      3 O           7.6234    6.5759    0.0000 O.3     1  UNL1       -0.3883
      4 O           9.4651   -1.3258    0.0000 O.3     1  UNL1       -0.3440
      5 O           7.7331   -1.3259    0.0000 O.3     1  UNL1       -0.3451
      6 O           9.4651   -3.3259    0.0000 O.3     1  UNL1       -0.4537
      7 O           7.7331   -4.3258    0.0000 O.3     1  UNL1       -0.3389
      8 O           6.0010   -3.3259    0.0000 O.3     1  UNL1       -0.3868
      9 O           6.0010   -4.3258    0.0000 O.3     1  UNL1       -0.3394
     10 O          10.3312   -1.8258    0.0000 O.2     1  UNL1       -0.2512
     11 O           7.7331   -6.3258    0.0000 O.3     1  UNL1       -0.3841
     12 O           6.0010   -7.3258    0.0000 O.3     1  UNL1       -0.3390
     13 O           4.2690   -6.3258    0.0000 O.3     1  UNL1       -0.4561
     14 O           4.2690   -3.3259    0.0000 O.3     1  UNL1       -0.3923
     15 O           4.2690   -7.3258    0.0000 O.3     1  UNL1       -0.3461
     16 O           6.0010   -9.3259    0.0000 O.3     1  UNL1       -0.3841
     17 O           3.4030   -4.8258    0.0000 O.2     1  UNL1       -0.2512
     18 O           4.2690  -10.3259    0.0000 O.3     1  UNL1       -0.3864
     19 O           2.5369   -9.3259    0.0000 O.3     1  UNL1       -0.3869
     20 C          10.3917    4.5700    0.0000 C.3     1  UNL1        0.0081
     21 C          10.4037    3.5284    0.0000 C.3     1  UNL1       -0.0206
     22 C           9.5276    5.0733    0.0000 C.3     1  UNL1       -0.0223
     23 C           9.5036    3.0041    0.0000 C.3     1  UNL1       -0.0294
     24 C           9.5314    6.0733    0.0000 C.3     1  UNL1        0.0452
     25 C          10.3994    6.5700    0.0000 C.3     1  UNL1        0.1770
     26 C          10.0295    5.5714    0.0000 C.3     1  UNL1        0.0103
     27 C           9.4911    1.9192    0.0000 C.3     1  UNL1       -0.0252
     28 C          11.2596    5.0666    0.0000 C.3     1  UNL1        0.0575
     29 C           8.6156    4.5700    0.0000 C.3     1  UNL1       -0.0488
     30 C          11.3536    3.0041    0.0000 C.3     1  UNL1       -0.0465
     31 C          10.4286    1.3731    0.0000 C.3     1  UNL1       -0.0278
     32 C           8.6036    3.5284    0.0000 C.3     1  UNL1       -0.0489
     33 C           8.6234    6.5836    0.0000 C.3     1  UNL1        0.0739
     34 C          11.3662    1.9192    0.0000 C.3     1  UNL1       -0.0486
     35 C          11.2678    4.0317    0.0000 C.3     1  UNL1       -0.0587
     36 C          10.4417    0.2430    0.0000 C.3     1  UNL1       -0.0052
     37 C           8.5016    1.3731    0.0000 C.3     1  UNL1       -0.0447
     38 C           8.6270    2.4225    0.0000 C.3     1  UNL1       -0.0590
     39 C           8.6194    7.6253    0.0000 C.3     1  UNL1        0.0063
     40 C           9.4651   -0.3259    0.0000 C.3     1  UNL1        0.0672
     41 C           8.4886    0.2430    0.0000 C.3     1  UNL1       -0.0255
     42 C           9.5234    8.1426    0.0000 C.3     1  UNL1        0.0829
     43 C           8.1301    5.7138    0.0000 C.3     1  UNL1       -0.0355
     44 C          11.4417    0.2507    0.0000 C.3     1  UNL1       -0.0572
     45 C          10.9484   -0.6192    0.0000 C.3     1  UNL1       -0.0572
     46 C           9.5312    9.1426    0.0000 C.2     1  UNL1       -0.0567
     47 C           8.5991   -1.8259    0.0000 C.3     1  UNL1        0.1992
     48 C          10.4010    9.6359    0.0000 C.2     1  UNL1       -0.0772
     49 C           8.5991   -2.8259    0.0000 C.3     1  UNL1        0.1819
     50 C          10.4087   10.6359    0.0000 C.3     1  UNL1       -0.0440
     51 C          11.2632    9.1292    0.0000 C.3     1  UNL1       -0.0440
     52 C           7.7331   -3.3259    0.0000 C.3     1  UNL1        0.1313
     53 C           6.8671   -1.8259    0.0000 C.3     1  UNL1        0.0793
     54 C           6.8671   -2.8259    0.0000 C.3     1  UNL1        0.1084
     55 C          10.3312   -2.8259    0.0000 C.2     1  UNL1        0.3044
     56 C           6.8671   -4.8258    0.0000 C.3     1  UNL1        0.1886
     57 C           6.8671   -5.8258    0.0000 C.3     1  UNL1        0.1355
     58 C          11.1972   -3.3259    0.0000 C.3     1  UNL1        0.0332
     59 C           6.0010   -6.3258    0.0000 C.3     1  UNL1        0.1316
     60 C           5.1350   -4.8258    0.0000 C.3     1  UNL1        0.1240
     61 C           5.1350   -5.8258    0.0000 C.3     1  UNL1        0.1598
     62 C           4.2690   -4.3258    0.0000 C.3     1  UNL1        0.0741
     63 C           5.1350   -7.8258    0.0000 C.3     1  UNL1        0.1881
     64 C           5.1350   -8.8259    0.0000 C.3     1  UNL1        0.1341
     65 C           3.4030   -5.8258    0.0000 C.2     1  UNL1        0.3044
     66 C           4.2690   -9.3259    0.0000 C.3     1  UNL1        0.1137
     67 C           3.4030   -7.8258    0.0000 C.3     1  UNL1        0.0792
     68 C           3.4030   -8.8259    0.0000 C.3     1  UNL1        0.1069
     69 C           2.5369   -6.3259    0.0000 C.3     1  UNL1        0.0332
     70 H           8.6911    5.2241    0.0000 H       1  UNL1        0.0312
     71 H           8.7643    2.5848    0.0000 H       1  UNL1        0.0312
     72 H           8.6938    5.9290    0.0000 H       1  UNL1        0.0384
     73 H           9.5338    5.9438    0.0000 H       1  UNL1        0.0323
     74 H           9.5310    5.2028    0.0000 H       1  UNL1        0.0323
     75 H          11.4694    4.4832    0.0000 H       1  UNL1        0.0567
     76 H          11.8706    5.1719    0.0000 H       1  UNL1        0.0567
     77 H           8.4133    5.1560    0.0000 H       1  UNL1        0.0268
     78 H           8.0036    4.4710    0.0000 H       1  UNL1        0.0268
     79 H          11.9657    2.9051    0.0000 H       1  UNL1        0.0271
     80 H          11.5559    3.5902    0.0000 H       1  UNL1        0.0271
     81 H          11.1680    0.9538    0.0000 H       1  UNL1        0.0312
     82 H           7.9940    3.6416    0.0000 H       1  UNL1        0.0268
     83 H           8.3878    2.9472    0.0000 H       1  UNL1        0.0268
     84 H          11.5820    1.3380    0.0000 H       1  UNL1        0.0268
     85 H          11.9758    2.0324    0.0000 H       1  UNL1        0.0268
     86 H          11.5799    3.4960    0.0000 H       1  UNL1        0.0235
     87 H          11.8035    4.3438    0.0000 H       1  UNL1        0.0235
     88 H          10.9557    4.5675    0.0000 H       1  UNL1        0.0235
     89 H           8.2994    1.9592    0.0000 H       1  UNL1        0.0271
     90 H           7.8896    1.2741    0.0000 H       1  UNL1        0.0271
     91 H           8.9391    2.9583    0.0000 H       1  UNL1        0.0235
     92 H           8.0913    2.7346    0.0000 H       1  UNL1        0.0235
     93 H           8.3149    1.8868    0.0000 H       1  UNL1        0.0235
     94 H           8.4081    8.2082    0.0000 H       1  UNL1        0.0321
     95 H           8.0089    7.5168    0.0000 H       1  UNL1        0.0321
     96 H          10.0027   -0.6348    0.0000 H       1  UNL1        0.0602
     97 H           7.8790    0.3561    0.0000 H       1  UNL1        0.0290
     98 H           8.2728   -0.3382    0.0000 H       1  UNL1        0.0290
     99 H          10.0634    8.4474    0.0000 H       1  UNL1        0.0642
    100 H           7.5908    6.0197    0.0000 H       1  UNL1        0.0257
    101 H           7.8242    5.1745    0.0000 H       1  UNL1        0.0257
    102 H           8.6694    5.4079    0.0000 H       1  UNL1        0.0257
    103 H          11.4465   -0.3693    0.0000 H       1  UNL1        0.0236
    104 H          12.0617    0.2555    0.0000 H       1  UNL1        0.0236
    105 H          11.4369    0.8707    0.0000 H       1  UNL1        0.0236
    106 H          10.4138   -0.9333    0.0000 H       1  UNL1        0.0236
    107 H          11.2625   -1.1537    0.0000 H       1  UNL1        0.0236
    108 H          11.4829   -0.3050    0.0000 H       1  UNL1        0.0236
    109 H           7.3093    7.1105    0.0000 H       1  UNL1        0.2102
    110 H           8.9966    9.4567    0.0000 H       1  UNL1        0.0597
    111 H           8.5991   -1.2059    0.0000 H       1  UNL1        0.0949
    112 H           8.5991   -3.4458    0.0000 H       1  UNL1        0.0813
    113 H          11.0287   10.6311    0.0000 H       1  UNL1        0.0274
    114 H          10.4135   11.2558    0.0000 H       1  UNL1        0.0274
    115 H           9.7887   10.6406    0.0000 H       1  UNL1        0.0274
    116 H          10.9490    8.5947    0.0000 H       1  UNL1        0.0274
    117 H          11.7977    8.8151    0.0000 H       1  UNL1        0.0274
    118 H          11.5773    9.6638    0.0000 H       1  UNL1        0.0274
    119 H           7.1962   -3.6358    0.0000 H       1  UNL1        0.0663
    120 H           6.6550   -1.2432    0.0000 H       1  UNL1        0.0587
    121 H           6.2565   -1.9335    0.0000 H       1  UNL1        0.0587
    122 H           6.3301   -2.5159    0.0000 H       1  UNL1        0.0643
    123 H           5.4641   -3.0159    0.0000 H       1  UNL1        0.2100
    124 H           7.4040   -5.1358    0.0000 H       1  UNL1        0.0938
    125 H           6.8671   -6.4458    0.0000 H       1  UNL1        0.0671
    126 H          10.8872   -3.8628    0.0000 H       1  UNL1        0.0342
    127 H          11.7341   -3.6358    0.0000 H       1  UNL1        0.0342
    128 H          11.5072   -2.7889    0.0000 H       1  UNL1        0.0342
    129 H           5.4641   -6.6358    0.0000 H       1  UNL1        0.0663
    130 H           5.1350   -4.2058    0.0000 H       1  UNL1        0.0658
    131 H           4.5981   -5.5158    0.0000 H       1  UNL1        0.0788
    132 H           8.2700   -6.0158    0.0000 H       1  UNL1        0.2101
    133 H           3.6584   -4.2182    0.0000 H       1  UNL1        0.0584
    134 H           4.0569   -4.9085    0.0000 H       1  UNL1        0.0584
    135 H           5.1350   -7.2058    0.0000 H       1  UNL1        0.0937
    136 H           3.7320   -3.0159    0.0000 H       1  UNL1        0.2095
    137 H           5.1350   -9.4459    0.0000 H       1  UNL1        0.0671
    138 H           3.7320   -9.6359    0.0000 H       1  UNL1        0.0647
    139 H           3.1909   -7.2432    0.0000 H       1  UNL1        0.0587
    140 H           2.7924   -7.9335    0.0000 H       1  UNL1        0.0587
    141 H           2.8660   -8.5158    0.0000 H       1  UNL1        0.0643
    142 H           2.2269   -5.7889    0.0000 H       1  UNL1        0.0342
    143 H           2.0000   -6.6359    0.0000 H       1  UNL1        0.0342
    144 H           2.8469   -6.8628    0.0000 H       1  UNL1        0.0342
    145 H           6.0010   -9.9459    0.0000 H       1  UNL1        0.2101
    146 H           3.7320  -10.6359    0.0000 H       1  UNL1        0.2100
    147 H           2.0000   -9.0158    0.0000 H       1  UNL1        0.2100
@<TRIPOS>BOND
     1     1    25    1
     2     1    28    1
     3    25     2    1
     4     2    42    1
     5    33     3    1
     6     3   109    1
     7    40     4    1
     8    47     4    1
     9     5    47    1
    10     5    53    1
    11    49     6    1
    12     6    55    1
    13    52     7    1
    14    56     7    1
    15    54     8    1
    16     8   123    1
    17     9    56    1
    18     9    60    1
    19    10    55    2
    20    57    11    1
    21    11   132    1
    22    59    12    1
    23    63    12    1
    24    61    13    1
    25    13    65    1
    26    14    62    1
    27    14   136    1
    28    15    63    1
    29    15    67    1
    30    64    16    1
    31    16   145    1
    32    17    65    2
    33    66    18    1
    34    18   146    1
    35    68    19    1
    36    19   147    1
    37    20    21    1
    38    20    22    1
    39    20    26    1
    40    20    28    1
    41    21    23    1
    42    21    30    1
    43    21    35    1
    44    22    24    1
    45    22    29    1
    46    22    70    1
    47    23    27    1
    48    23    32    1
    49    23    71    1
    50    24    25    1
    51    24    33    1
    52    24    72    1
    53    25    26    1
    54    26    73    1
    55    26    74    1
    56    27    31    1
    57    27    37    1
    58    27    38    1
    59    28    75    1
    60    28    76    1
    61    29    32    1
    62    29    77    1
    63    29    78    1
    64    30    34    1
    65    30    79    1
    66    30    80    1
    67    31    34    1
    68    31    36    1
    69    31    81    1
    70    32    82    1
    71    32    83    1
    72    33    39    1
    73    33    43    1
    74    34    84    1
    75    34    85    1
    76    35    86    1
    77    35    87    1
    78    35    88    1
    79    36    40    1
    80    36    44    1
    81    36    45    1
    82    37    41    1
    83    37    89    1
    84    37    90    1
    85    38    91    1
    86    38    92    1
    87    38    93    1
    88    39    42    1
    89    39    94    1
    90    39    95    1
    91    40    41    1
    92    40    96    1
    93    41    97    1
    94    41    98    1
    95    42    46    1
    96    42    99    1
    97    43   100    1
    98    43   101    1
    99    43   102    1
   100    44   103    1
   101    44   104    1
   102    44   105    1
   103    45   106    1
   104    45   107    1
   105    45   108    1
   106    46    48    2
   107    46   110    1
   108    47    49    1
   109    47   111    1
   110    48    50    1
   111    48    51    1
   112    49    52    1
   113    49   112    1
   114    50   113    1
   115    50   114    1
   116    50   115    1
   117    51   116    1
   118    51   117    1
   119    51   118    1
   120    52    54    1
   121    52   119    1
   122    53    54    1
   123    53   120    1
   124    53   121    1
   125    54   122    1
   126    55    58    1
   127    56    57    1
   128    56   124    1
   129    57    59    1
   130    57   125    1
   131    58   126    1
   132    58   127    1
   133    58   128    1
   134    59    61    1
   135    59   129    1
   136    60    61    1
   137    60    62    1
   138    60   130    1
   139    61   131    1
   140    62   133    1
   141    62   134    1
   142    63    64    1
   143    63   135    1
   144    64    66    1
   145    64   137    1
   146    65    69    1
   147    66    68    1
   148    66   138    1
   149    67    68    1
   150    67   139    1
   151    67   140    1
   152    68   141    1
   153    69   142    1
   154    69   143    1
   155    69   144    1
