@<TRIPOS>MOLECULE
IMPHY009960
 22 22 0 0 0
SMALL
GASTEIGER

@<TRIPOS>ATOM
      1 O           2.8660   -1.5950    0.0000 O.2     1  UNL1       -0.4907
      2 O           4.5981   -2.5950    0.0000 O.2     1  UNL1       -0.4973
      3 C           4.5981    0.4050    0.0000 C.2     1  UNL1        0.0287
      4 C           3.7320   -1.0950    0.0000 C.2     1  UNL1        0.1713
      5 C           3.7320   -0.0950    0.0000 C.2     1  UNL1       -0.0002
      6 C           4.5981    1.4050    0.0000 C.2     1  UNL1       -0.0504
      7 C           4.5981   -1.5950    0.0000 C.2     1  UNL1        0.2113
      8 C           5.4641    1.9050    0.0000 C.2     1  UNL1       -0.0860
      9 C           5.4641   -0.0950    0.0000 C.1     1  UNL1       -0.0579
     10 C           5.4641   -1.0950    0.0000 C.1     1  UNL1       -0.0202
     11 C           5.4641    2.9050    0.0000 C.3     1  UNL1       -0.0465
     12 C           2.0000   -1.0950    0.0000 C.3     1  UNL1        0.0790
     13 H           3.1951    0.2150    0.0000 H       1  UNL1        0.0668
     14 H           4.0611    1.7150    0.0000 H       1  UNL1        0.0627
     15 H           6.0010    1.5950    0.0000 H       1  UNL1        0.0570
     16 H           6.0841    2.9050    0.0000 H       1  UNL1        0.0272
     17 H           5.4641    3.5250    0.0000 H       1  UNL1        0.0272
     18 H           4.8441    2.9050    0.0000 H       1  UNL1        0.0272
     19 H           2.3100   -0.5581    0.0000 H       1  UNL1        0.0660
     20 H           1.4631   -0.7850    0.0000 H       1  UNL1        0.0660
     21 H           1.6900   -1.6319    0.0000 H       1  UNL1        0.0660
     22 H           5.1350   -2.9050    0.0000 H       1  UNL1        0.2929
@<TRIPOS>BOND
     1     1     4    1
     2     1    12    1
     3     2     7    1
     4     2    22    1
     5     3     5    2
     6     3     6    1
     7     3     9    1
     8     4     5    1
     9     4     7    2
    10     5    13    1
    11     6     8    2
    12     6    14    1
    13     7    10    1
    14     8    11    1
    15     8    15    1
    16     9    10    3
    17    11    16    1
    18    11    17    1
    19    11    18    1
    20    12    19    1
    21    12    20    1
    22    12    21    1
