@<TRIPOS>MOLECULE
IMPHY013247
 99 103 0 0 0
SMALL
GASTEIGER

@<TRIPOS>ATOM
      1 O           8.0703   -2.6344    0.0000 O.3     1  UNL1       -0.4580
      2 O           7.2101   -1.1311    0.0000 O.2     1  UNL1       -0.2456
      3 O           2.0101   -2.1110    0.0000 O.3     1  UNL1       -0.4914
      4 O           2.0024   -4.1110    0.0000 O.3     1  UNL1       -0.5033
      5 C          13.4634    0.4180    0.0000 C.3     1  UNL1       -0.0256
      6 C          13.4634   -0.5820    0.0000 C.3     1  UNL1       -0.0320
      7 C          12.5974   -1.0820    0.0000 C.3     1  UNL1       -0.0307
      8 C          11.7313   -0.5820    0.0000 C.3     1  UNL1       -0.0285
      9 C          14.4096    0.7227    0.0000 C.3     1  UNL1       -0.0294
     10 C          12.5974    0.9180    0.0000 C.3     1  UNL1       -0.0468
     11 C          10.8213   -1.0889    0.0000 C.3     1  UNL1       -0.0077
     12 C          14.4096   -0.8868    0.0000 C.3     1  UNL1       -0.0492
     13 C          11.7313    0.4180    0.0000 C.3     1  UNL1       -0.0486
     14 C          14.9932   -0.0820    0.0000 C.3     1  UNL1       -0.0489
     15 C          12.6134   -2.1236    0.0000 C.3     1  UNL1       -0.0311
     16 C          13.4634    1.4180    0.0000 C.3     1  UNL1       -0.0590
     17 C          10.8133   -2.1305    0.0000 C.2     1  UNL1       -0.0638
     18 C          14.7203    1.6732    0.0000 C.3     1  UNL1       -0.0224
     19 C           9.8945   -0.5248    0.0000 C.3     1  UNL1       -0.0403
     20 C          11.7154   -2.6513    0.0000 C.2     1  UNL1       -0.0838
     21 C          10.8290   -0.0889    0.0000 C.3     1  UNL1       -0.0556
     22 C           9.8779   -2.6802    0.0000 C.3     1  UNL1        0.0061
     23 C           8.9466   -1.0528    0.0000 C.3     1  UNL1       -0.0146
     24 C           8.9382   -2.1377    0.0000 C.3     1  UNL1        0.1071
     25 C          14.0524    2.4175    0.0000 C.3     1  UNL1       -0.0587
     26 C          15.6988    1.8794    0.0000 C.2     1  UNL1       -0.0845
     27 C          16.0094    2.8300    0.0000 C.2     1  UNL1       -0.0843
     28 C          16.9879    3.0362    0.0000 C.3     1  UNL1       -0.0208
     29 C           7.2062   -2.1310    0.0000 C.2     1  UNL1        0.3322
     30 C          17.2986    3.9867    0.0000 C.3     1  UNL1       -0.0405
     31 C          17.6558    2.2919    0.0000 C.3     1  UNL1       -0.0494
     32 C           6.3383   -2.6277    0.0000 C.2     1  UNL1        0.0231
     33 C          18.2771    4.1929    0.0000 C.3     1  UNL1       -0.0621
     34 C          16.6308    4.7310    0.0000 C.3     1  UNL1       -0.0621
     35 C          18.6343    2.4981    0.0000 C.3     1  UNL1       -0.0647
     36 C           5.4742   -2.1244    0.0000 C.2     1  UNL1       -0.0477
     37 C           4.6062   -2.6210    0.0000 C.ar    1  UNL1       -0.0211
     38 C           3.7421   -2.1177    0.0000 C.ar    1  UNL1       -0.0092
     39 C           4.6024   -3.6210    0.0000 C.ar    1  UNL1       -0.0509
     40 C           2.8742   -2.6143    0.0000 C.ar    1  UNL1        0.1618
     41 C           3.7344   -4.1177    0.0000 C.ar    1  UNL1       -0.0160
     42 C           2.8703   -3.6143    0.0000 C.ar    1  UNL1        0.1585
     43 C           2.0140   -1.1110    0.0000 C.3     1  UNL1        0.0790
     44 H          13.5533   -1.4273    0.0000 H       1  UNL1        0.0309
     45 H          13.3367   -1.5014    0.0000 H       1  UNL1        0.0309
     46 H          12.4675   -0.1570    0.0000 H       1  UNL1        0.0312
     47 H          15.2493    0.8546    0.0000 H       1  UNL1        0.0312
     48 H          12.9959    1.3929    0.0000 H       1  UNL1        0.0271
     49 H          12.1988    1.3929    0.0000 H       1  UNL1        0.0271
     50 H          14.1586   -1.4537    0.0000 H       1  UNL1        0.0268
     51 H          14.9470   -1.1960    0.0000 H       1  UNL1        0.0268
     52 H          11.5193    1.0006    0.0000 H       1  UNL1        0.0268
     53 H          11.1208    0.3103    0.0000 H       1  UNL1        0.0268
     54 H          15.4541   -0.4968    0.0000 H       1  UNL1        0.0268
     55 H          15.4541    0.3327    0.0000 H       1  UNL1        0.0268
     56 H          12.8315   -2.7040    0.0000 H       1  UNL1        0.0310
     57 H          13.2226   -2.0080    0.0000 H       1  UNL1        0.0310
     58 H          14.0834    1.4180    0.0000 H       1  UNL1        0.0235
     59 H          13.4634    2.0380    0.0000 H       1  UNL1        0.0235
     60 H          12.8434    1.4180    0.0000 H       1  UNL1        0.0235
     61 H          14.9129    2.2625    0.0000 H       1  UNL1        0.0343
     62 H          10.3027   -0.0582    0.0000 H       1  UNL1        0.0275
     63 H           9.5046   -0.0428    0.0000 H       1  UNL1        0.0275
     64 H          11.7178   -3.2713    0.0000 H       1  UNL1        0.0572
     65 H          11.4490   -0.0937    0.0000 H       1  UNL1        0.0238
     66 H          10.8338    0.5311    0.0000 H       1  UNL1        0.0238
     67 H          10.2091   -0.0841    0.0000 H       1  UNL1        0.0238
     68 H           9.4806   -3.1562    0.0000 H       1  UNL1        0.0346
     69 H          10.2788   -3.1531    0.0000 H       1  UNL1        0.0346
     70 H           8.7421   -0.4675    0.0000 H       1  UNL1        0.0301
     71 H           8.3350   -1.1541    0.0000 H       1  UNL1        0.0301
     72 H           8.4031   -1.8246    0.0000 H       1  UNL1        0.0737
     73 H          14.5139    2.8316    0.0000 H       1  UNL1        0.0235
     74 H          13.6384    2.8790    0.0000 H       1  UNL1        0.0235
     75 H          13.5910    2.0034    0.0000 H       1  UNL1        0.0235
     76 H          16.1128    1.4180    0.0000 H       1  UNL1        0.0572
     77 H          15.5954    3.2914    0.0000 H       1  UNL1        0.0572
     78 H          17.5946    3.1640    0.0000 H       1  UNL1        0.0345
     79 H          16.6919    3.8588    0.0000 H       1  UNL1        0.0301
     80 H          17.1294    1.9642    0.0000 H       1  UNL1        0.0268
     81 H          17.8870    1.7166    0.0000 H       1  UNL1        0.0268
     82 H           6.3359   -3.2477    0.0000 H       1  UNL1        0.0689
     83 H          18.4050    3.5862    0.0000 H       1  UNL1        0.0233
     84 H          18.8838    4.3208    0.0000 H       1  UNL1        0.0233
     85 H          18.1493    4.7996    0.0000 H       1  UNL1        0.0233
     86 H          17.0922    5.1450    0.0000 H       1  UNL1        0.0233
     87 H          16.2167    5.1925    0.0000 H       1  UNL1        0.0233
     88 H          16.1693    4.3169    0.0000 H       1  UNL1        0.0233
     89 H          18.7621    1.8914    0.0000 H       1  UNL1        0.0230
     90 H          19.2410    2.6259    0.0000 H       1  UNL1        0.0230
     91 H          18.5064    3.1048    0.0000 H       1  UNL1        0.0230
     92 H           5.4766   -1.5044    0.0000 H       1  UNL1        0.0626
     93 H           3.7445   -1.4977    0.0000 H       1  UNL1        0.0661
     94 H           5.1381   -3.9331    0.0000 H       1  UNL1        0.0625
     95 H           3.7320   -4.7377    0.0000 H       1  UNL1        0.0655
     96 H           2.0000   -4.7310    0.0000 H       1  UNL1        0.2923
     97 H           2.6340   -1.1134    0.0000 H       1  UNL1        0.0660
     98 H           2.0163   -0.4910    0.0000 H       1  UNL1        0.0660
     99 H           1.3940   -1.1086    0.0000 H       1  UNL1        0.0660
@<TRIPOS>BOND
     1    24     1    1
     2     1    29    1
     3     2    29    2
     4     3    40    1
     5     3    43    1
     6     4    42    1
     7     4    96    1
     8     5     6    1
     9     5     9    1
    10     5    10    1
    11     5    16    1
    12     6     7    1
    13     6    12    1
    14     6    44    1
    15     7     8    1
    16     7    15    1
    17     7    45    1
    18     8    11    1
    19     8    13    1
    20     8    46    1
    21     9    14    1
    22     9    18    1
    23     9    47    1
    24    10    13    1
    25    10    48    1
    26    10    49    1
    27    11    17    1
    28    11    19    1
    29    11    21    1
    30    12    14    1
    31    12    50    1
    32    12    51    1
    33    13    52    1
    34    13    53    1
    35    14    54    1
    36    14    55    1
    37    15    20    1
    38    15    56    1
    39    15    57    1
    40    16    58    1
    41    16    59    1
    42    16    60    1
    43    17    20    2
    44    17    22    1
    45    18    25    1
    46    18    26    1
    47    18    61    1
    48    19    23    1
    49    19    62    1
    50    19    63    1
    51    20    64    1
    52    21    65    1
    53    21    66    1
    54    21    67    1
    55    22    24    1
    56    22    68    1
    57    22    69    1
    58    23    24    1
    59    23    70    1
    60    23    71    1
    61    24    72    1
    62    25    73    1
    63    25    74    1
    64    25    75    1
    65    26    27    2
    66    26    76    1
    67    27    28    1
    68    27    77    1
    69    28    30    1
    70    28    31    1
    71    28    78    1
    72    29    32    1
    73    30    33    1
    74    30    34    1
    75    30    79    1
    76    31    35    1
    77    31    80    1
    78    31    81    1
    79    32    36    2
    80    32    82    1
    81    33    83    1
    82    33    84    1
    83    33    85    1
    84    34    86    1
    85    34    87    1
    86    34    88    1
    87    35    89    1
    88    35    90    1
    89    35    91    1
    90    36    37    1
    91    36    92    1
    92    37    38   ar
    93    37    39   ar
    94    38    40   ar
    95    38    93    1
    96    39    41   ar
    97    39    94    1
    98    40    42   ar
    99    41    42   ar
   100    41    95    1
   101    43    97    1
   102    43    98    1
   103    43    99    1
