@<TRIPOS>MOLECULE
IMPHY003248
 15 15 0 0 0
SMALL
GASTEIGER

@<TRIPOS>ATOM
      1 S           2.8090   -1.1739    0.0000 S.2     1  UNL1       -0.1016
      2 C           3.3090    0.3649    0.0000 C.ar    1  UNL1       -0.0405
      3 C           3.6180   -0.5861    0.0000 C.ar    1  UNL1       -0.0104
      4 C           2.3090    0.3649    0.0000 C.ar    1  UNL1       -0.0516
      5 C           3.8968    1.1739    0.0000 C.3     1  UNL1       -0.0390
      6 C           4.5691   -0.8952    0.0000 C.3     1  UNL1       -0.0332
      7 C           2.0000   -0.5861    0.0000 C.ar    1  UNL1       -0.0238
      8 H           1.9446    0.8665    0.0000 H       1  UNL1        0.0626
      9 H           4.3984    0.8095    0.0000 H       1  UNL1        0.0278
     10 H           4.2612    1.6755    0.0000 H       1  UNL1        0.0278
     11 H           3.3952    1.5384    0.0000 H       1  UNL1        0.0278
     12 H           4.3775   -1.4848    0.0000 H       1  UNL1        0.0283
     13 H           5.1588   -1.0868    0.0000 H       1  UNL1        0.0283
     14 H           4.7607   -0.3055    0.0000 H       1  UNL1        0.0283
     15 H           1.4103   -0.7777    0.0000 H       1  UNL1        0.0693
@<TRIPOS>BOND
     1     1     3   ar
     2     1     7   ar
     3     2     3   ar
     4     2     4   ar
     5     2     5    1
     6     3     6    1
     7     4     7   ar
     8     4     8    1
     9     5     9    1
    10     5    10    1
    11     5    11    1
    12     6    12    1
    13     6    13    1
    14     6    14    1
    15     7    15    1
