@<TRIPOS>MOLECULE
IMPHY011133
 47 50 0 0 0
SMALL
GASTEIGER

@<TRIPOS>ATOM
      1 O           6.5862   -2.6848    0.0000 O.3     1  UNL1       -0.4607
      2 O           8.3074   -3.1460    0.0000 O.2     1  UNL1       -0.2453
      3 O          12.0791   -1.1776    0.0000 O.3     1  UNL1       -0.4526
      4 O          12.0791   -2.7871    0.0000 O.3     1  UNL1       -0.4526
      5 O           4.2294    2.4769    0.0000 O.3     1  UNL1       -0.4914
      6 O           2.7431    1.1386    0.0000 O.3     1  UNL1       -0.4915
      7 C           6.7553   -1.0756    0.0000 C.3     1  UNL1        0.0291
      8 C           6.5474   -0.0975    0.0000 C.3     1  UNL1       -0.0174
      9 C           6.0862   -1.8188    0.0000 C.3     1  UNL1        0.1001
     10 C           7.6688   -1.4824    0.0000 C.2     1  UNL1        0.0437
     11 C           5.5963    0.2116    0.0000 C.ar    1  UNL1       -0.0430
     12 C           7.5643   -2.4769    0.0000 C.2     1  UNL1        0.3356
     13 C           8.5348   -0.9823    0.0000 C.2     1  UNL1       -0.0441
     14 C           9.4009   -1.4824    0.0000 C.ar    1  UNL1       -0.0209
     15 C           5.3884    1.1897    0.0000 C.ar    1  UNL1       -0.0131
     16 C           4.8532   -0.4576    0.0000 C.ar    1  UNL1       -0.0549
     17 C           4.4374    1.4987    0.0000 C.ar    1  UNL1        0.1617
     18 C          10.2669   -0.9823    0.0000 C.ar    1  UNL1       -0.0090
     19 C           3.9021   -0.1486    0.0000 C.ar    1  UNL1       -0.0160
     20 C           9.4009   -2.4824    0.0000 C.ar    1  UNL1       -0.0509
     21 C           3.6942    0.8296    0.0000 C.ar    1  UNL1        0.1615
     22 C          11.1329   -1.4824    0.0000 C.ar    1  UNL1        0.1668
     23 C          11.1329   -2.4824    0.0000 C.ar    1  UNL1        0.1663
     24 C          10.2669   -2.9824    0.0000 C.ar    1  UNL1       -0.0156
     25 C          12.6628   -1.9824    0.0000 C.3     1  UNL1        0.2332
     26 C           4.9726    3.1460    0.0000 C.3     1  UNL1        0.0790
     27 C           2.0000    0.4695    0.0000 C.3     1  UNL1        0.0790
     28 H           6.1564   -0.9151    0.0000 H       1  UNL1        0.0387
     29 H           7.1670   -0.0758    0.0000 H       1  UNL1        0.0320
     30 H           6.6337    0.5165    0.0000 H       1  UNL1        0.0320
     31 H           5.6713   -1.3580    0.0000 H       1  UNL1        0.0704
     32 H           5.5846   -2.1832    0.0000 H       1  UNL1        0.0704
     33 H           8.5348   -0.3623    0.0000 H       1  UNL1        0.0628
     34 H           5.8492    1.6046    0.0000 H       1  UNL1        0.0658
     35 H           4.9821   -1.0640    0.0000 H       1  UNL1        0.0621
     36 H          10.2669   -0.3623    0.0000 H       1  UNL1        0.0661
     37 H           3.4414   -0.5634    0.0000 H       1  UNL1        0.0655
     38 H           8.8639   -2.7924    0.0000 H       1  UNL1        0.0625
     39 H          10.2669   -3.6024    0.0000 H       1  UNL1        0.0655
     40 H          13.1236   -2.3971    0.0000 H       1  UNL1        0.1166
     41 H          13.1236   -1.5676    0.0000 H       1  UNL1        0.1166
     42 H           5.3874    2.6852    0.0000 H       1  UNL1        0.0660
     43 H           5.4333    3.5609    0.0000 H       1  UNL1        0.0660
     44 H           4.5577    3.6068    0.0000 H       1  UNL1        0.0660
     45 H           1.5851    0.9302    0.0000 H       1  UNL1        0.0660
     46 H           1.5392    0.0546    0.0000 H       1  UNL1        0.0660
     47 H           2.4149    0.0087    0.0000 H       1  UNL1        0.0660
@<TRIPOS>BOND
     1     1     9    1
     2     1    12    1
     3     2    12    2
     4     3    22    1
     5     3    25    1
     6     4    23    1
     7     4    25    1
     8     5    17    1
     9     5    26    1
    10     6    21    1
    11     6    27    1
    12     7     8    1
    13     7     9    1
    14     7    10    1
    15     7    28    1
    16     8    11    1
    17     8    29    1
    18     8    30    1
    19     9    31    1
    20     9    32    1
    21    10    12    1
    22    10    13    2
    23    11    15   ar
    24    11    16   ar
    25    13    14    1
    26    13    33    1
    27    14    18   ar
    28    14    20   ar
    29    15    17   ar
    30    15    34    1
    31    16    19   ar
    32    16    35    1
    33    17    21   ar
    34    18    22   ar
    35    18    36    1
    36    19    21   ar
    37    19    37    1
    38    20    24   ar
    39    20    38    1
    40    22    23   ar
    41    23    24   ar
    42    24    39    1
    43    25    40    1
    44    25    41    1
    45    26    42    1
    46    26    43    1
    47    26    44    1
    48    27    45    1
    49    27    46    1
    50    27    47    1
