@<TRIPOS>MOLECULE
IMPHY012238
 77 76 0 0 0
SMALL
GASTEIGER

@<TRIPOS>ATOM
      1 O           2.8660    0.7500    0.0000 O.3     1  UNL1       -0.4679
      2 O           3.7320   -0.7500    0.0000 O.2     1  UNL1       -0.2509
      3 C          14.1244    0.2500    0.0000 C.3     1  UNL1       -0.0531
      4 C          13.2583    0.7500    0.0000 C.3     1  UNL1       -0.0531
      5 C          14.9904    0.7500    0.0000 C.3     1  UNL1       -0.0531
      6 C          12.3923    0.2500    0.0000 C.3     1  UNL1       -0.0531
      7 C          15.8564    0.2500    0.0000 C.3     1  UNL1       -0.0531
      8 C          11.5263    0.7500    0.0000 C.3     1  UNL1       -0.0531
      9 C          16.7224    0.7500    0.0000 C.3     1  UNL1       -0.0531
     10 C          10.6603    0.2500    0.0000 C.3     1  UNL1       -0.0531
     11 C          17.5885    0.2500    0.0000 C.3     1  UNL1       -0.0531
     12 C           9.7942    0.7500    0.0000 C.3     1  UNL1       -0.0531
     13 C          18.4545    0.7500    0.0000 C.3     1  UNL1       -0.0531
     14 C           8.9282    0.2500    0.0000 C.3     1  UNL1       -0.0531
     15 C          19.3205    0.2500    0.0000 C.3     1  UNL1       -0.0531
     16 C           8.0622    0.7500    0.0000 C.3     1  UNL1       -0.0531
     17 C          20.1865    0.7500    0.0000 C.3     1  UNL1       -0.0531
     18 C           7.1962    0.2500    0.0000 C.3     1  UNL1       -0.0530
     19 C          21.0526    0.2500    0.0000 C.3     1  UNL1       -0.0531
     20 C           6.3301    0.7500    0.0000 C.3     1  UNL1       -0.0526
     21 C          21.9186    0.7500    0.0000 C.3     1  UNL1       -0.0533
     22 C           5.4641    0.2500    0.0000 C.3     1  UNL1       -0.0430
     23 C          22.7846    0.2500    0.0000 C.3     1  UNL1       -0.0559
     24 C           4.5981    0.7500    0.0000 C.3     1  UNL1        0.0449
     25 C          23.6506    0.7500    0.0000 C.3     1  UNL1       -0.0653
     26 C           3.7320    0.2500    0.0000 C.2     1  UNL1        0.3068
     27 C           2.0000    0.2500    0.0000 C.3     1  UNL1        0.0817
     28 H          13.7258   -0.2249    0.0000 H       1  UNL1        0.0265
     29 H          14.5229   -0.2249    0.0000 H       1  UNL1        0.0265
     30 H          13.6569    1.2250    0.0000 H       1  UNL1        0.0265
     31 H          12.8598    1.2250    0.0000 H       1  UNL1        0.0265
     32 H          15.3889    1.2250    0.0000 H       1  UNL1        0.0265
     33 H          14.5919    1.2250    0.0000 H       1  UNL1        0.0265
     34 H          11.9938   -0.2249    0.0000 H       1  UNL1        0.0265
     35 H          12.7908   -0.2249    0.0000 H       1  UNL1        0.0265
     36 H          15.4579   -0.2249    0.0000 H       1  UNL1        0.0265
     37 H          16.2549   -0.2249    0.0000 H       1  UNL1        0.0265
     38 H          11.9248    1.2250    0.0000 H       1  UNL1        0.0265
     39 H          11.1278    1.2250    0.0000 H       1  UNL1        0.0265
     40 H          17.1210    1.2250    0.0000 H       1  UNL1        0.0265
     41 H          16.3239    1.2250    0.0000 H       1  UNL1        0.0265
     42 H          10.2617   -0.2249    0.0000 H       1  UNL1        0.0265
     43 H          11.0588   -0.2249    0.0000 H       1  UNL1        0.0265
     44 H          17.1899   -0.2249    0.0000 H       1  UNL1        0.0265
     45 H          17.9870   -0.2249    0.0000 H       1  UNL1        0.0265
     46 H          10.1928    1.2250    0.0000 H       1  UNL1        0.0265
     47 H           9.3957    1.2250    0.0000 H       1  UNL1        0.0265
     48 H          18.8530    1.2250    0.0000 H       1  UNL1        0.0265
     49 H          18.0560    1.2250    0.0000 H       1  UNL1        0.0265
     50 H           8.5297   -0.2249    0.0000 H       1  UNL1        0.0265
     51 H           9.3267   -0.2249    0.0000 H       1  UNL1        0.0265
     52 H          18.9220   -0.2249    0.0000 H       1  UNL1        0.0265
     53 H          19.7190   -0.2249    0.0000 H       1  UNL1        0.0265
     54 H           8.4607    1.2250    0.0000 H       1  UNL1        0.0265
     55 H           7.6636    1.2250    0.0000 H       1  UNL1        0.0265
     56 H          20.5851    1.2250    0.0000 H       1  UNL1        0.0265
     57 H          19.7880    1.2250    0.0000 H       1  UNL1        0.0265
     58 H           6.7976   -0.2249    0.0000 H       1  UNL1        0.0265
     59 H           7.5947   -0.2249    0.0000 H       1  UNL1        0.0265
     60 H          20.6540   -0.2249    0.0000 H       1  UNL1        0.0265
     61 H          21.4511   -0.2249    0.0000 H       1  UNL1        0.0265
     62 H           6.7287    1.2250    0.0000 H       1  UNL1        0.0265
     63 H           5.9316    1.2250    0.0000 H       1  UNL1        0.0265
     64 H          22.3171    1.2250    0.0000 H       1  UNL1        0.0265
     65 H          21.5201    1.2250    0.0000 H       1  UNL1        0.0265
     66 H           5.0656   -0.2249    0.0000 H       1  UNL1        0.0270
     67 H           5.8626   -0.2249    0.0000 H       1  UNL1        0.0270
     68 H          22.3861   -0.2249    0.0000 H       1  UNL1        0.0263
     69 H          23.1831   -0.2249    0.0000 H       1  UNL1        0.0263
     70 H           4.9966    1.2250    0.0000 H       1  UNL1        0.0377
     71 H           4.1996    1.2250    0.0000 H       1  UNL1        0.0377
     72 H          23.9606    0.2131    0.0000 H       1  UNL1        0.0230
     73 H          24.1876    1.0600    0.0000 H       1  UNL1        0.0230
     74 H          23.3406    1.2869    0.0000 H       1  UNL1        0.0230
     75 H           1.6900    0.7869    0.0000 H       1  UNL1        0.0661
     76 H           1.4631   -0.0600    0.0000 H       1  UNL1        0.0661
     77 H           2.3100   -0.2869    0.0000 H       1  UNL1        0.0661
@<TRIPOS>BOND
     1     1    26    1
     2     1    27    1
     3     2    26    2
     4     3     4    1
     5     3     5    1
     6     3    28    1
     7     3    29    1
     8     4     6    1
     9     4    30    1
    10     4    31    1
    11     5     7    1
    12     5    32    1
    13     5    33    1
    14     6     8    1
    15     6    34    1
    16     6    35    1
    17     7     9    1
    18     7    36    1
    19     7    37    1
    20     8    10    1
    21     8    38    1
    22     8    39    1
    23     9    11    1
    24     9    40    1
    25     9    41    1
    26    10    12    1
    27    10    42    1
    28    10    43    1
    29    11    13    1
    30    11    44    1
    31    11    45    1
    32    12    14    1
    33    12    46    1
    34    12    47    1
    35    13    15    1
    36    13    48    1
    37    13    49    1
    38    14    16    1
    39    14    50    1
    40    14    51    1
    41    15    17    1
    42    15    52    1
    43    15    53    1
    44    16    18    1
    45    16    54    1
    46    16    55    1
    47    17    19    1
    48    17    56    1
    49    17    57    1
    50    18    20    1
    51    18    58    1
    52    18    59    1
    53    19    21    1
    54    19    60    1
    55    19    61    1
    56    20    22    1
    57    20    62    1
    58    20    63    1
    59    21    23    1
    60    21    64    1
    61    21    65    1
    62    22    24    1
    63    22    66    1
    64    22    67    1
    65    23    25    1
    66    23    68    1
    67    23    69    1
    68    24    26    1
    69    24    70    1
    70    24    71    1
    71    25    72    1
    72    25    73    1
    73    25    74    1
    74    27    75    1
    75    27    76    1
    76    27    77    1
