@<TRIPOS>MOLECULE
IMPHY005191
 22 23 0 0 0
SMALL
GASTEIGER

@<TRIPOS>ATOM
      1 N           5.5321   -0.0173    0.0000 N.2     1  UNL1       -0.2876
      2 C           4.6660    1.4827    0.0000 C.3     1  UNL1       -0.0075
      3 C           3.8000    0.9827    0.0000 C.ar    1  UNL1       -0.0368
      4 C           3.8000   -0.0173    0.0000 C.ar    1  UNL1       -0.0012
      5 C           5.5321    0.9827    0.0000 C.3     1  UNL1        0.0440
      6 C           4.6660   -0.5173    0.0000 C.2     1  UNL1        0.0402
      7 C           2.9061    1.5173    0.0000 C.ar    1  UNL1       -0.0579
      8 C           2.9061   -0.5520    0.0000 C.ar    1  UNL1       -0.0526
      9 C           4.6660   -1.5173    0.0000 C.3     1  UNL1       -0.0222
     10 C           2.0000    1.0035    0.0000 C.ar    1  UNL1       -0.0615
     11 C           2.0000   -0.0381    0.0000 C.ar    1  UNL1       -0.0611
     12 H           5.0646    1.9576    0.0000 H       1  UNL1        0.0331
     13 H           4.2675    1.9576    0.0000 H       1  UNL1        0.0331
     14 H           6.1426    0.8750    0.0000 H       1  UNL1        0.0511
     15 H           5.7441    1.5653    0.0000 H       1  UNL1        0.0511
     16 H           2.9132    2.1373    0.0000 H       1  UNL1        0.0620
     17 H           2.9132   -1.1720    0.0000 H       1  UNL1        0.0624
     18 H           4.0460   -1.5173    0.0000 H       1  UNL1        0.0293
     19 H           4.6660   -2.1373    0.0000 H       1  UNL1        0.0293
     20 H           5.2860   -1.5173    0.0000 H       1  UNL1        0.0293
     21 H           1.4643    1.3156    0.0000 H       1  UNL1        0.0618
     22 H           1.4643   -0.3502    0.0000 H       1  UNL1        0.0618
@<TRIPOS>BOND
     1     1     5    1
     2     1     6    2
     3     2     3    1
     4     2     5    1
     5     2    12    1
     6     2    13    1
     7     3     4   ar
     8     3     7   ar
     9     4     6    1
    10     4     8   ar
    11     5    14    1
    12     5    15    1
    13     6     9    1
    14     7    10   ar
    15     7    16    1
    16     8    11   ar
    17     8    17    1
    18     9    18    1
    19     9    19    1
    20     9    20    1
    21    10    11   ar
    22    10    21    1
    23    11    22    1
