@<TRIPOS>MOLECULE
IMPHY006973
 63 67 0 0 0
SMALL
GASTEIGER

@<TRIPOS>ATOM
      1 O           6.4994    2.7482    0.0000 O.3     1  UNL1       -0.4612
      2 O           5.9277   -2.4573    0.0000 O.3     1  UNL1       -0.4908
      3 O           7.9613    3.4066    0.0000 O.2     1  UNL1       -0.2508
      4 O           4.0257   -2.8626    0.0000 O.3     1  UNL1       -0.4914
      5 O           6.6716   -2.7952    0.0000 O.3     1  UNL1       -0.5062
      6 N           3.8000    1.4355    0.0000 N.3     1  UNL1       -0.2922
      7 C           3.8000    2.4355    0.0000 C.3     1  UNL1        0.0143
      8 C           4.6660    0.9355    0.0000 C.3     1  UNL1        0.0399
      9 C           4.6660    2.9355    0.0000 C.3     1  UNL1        0.0001
     10 C           5.5321    2.4355    0.0000 C.3     1  UNL1        0.1062
     11 C           2.9061    2.9701    0.0000 C.3     1  UNL1       -0.0372
     12 C           5.5321    1.4355    0.0000 C.3     1  UNL1        0.0042
     13 C           2.9061    0.9008    0.0000 C.3     1  UNL1       -0.0003
     14 C           2.0000    2.4563    0.0000 C.3     1  UNL1       -0.0505
     15 C           2.0000    1.4146    0.0000 C.3     1  UNL1       -0.0401
     16 C           4.8789   -0.0586    0.0000 C.ar    1  UNL1       -0.0186
     17 C           5.5687   -0.8053    0.0000 C.ar    1  UNL1        0.0356
     18 C           3.9524   -0.2920    0.0000 C.ar    1  UNL1       -0.0528
     19 C           7.4910    2.5241    0.0000 C.2     1  UNL1        0.3077
     20 C           5.2628   -1.7104    0.0000 C.ar    1  UNL1        0.1696
     21 C           6.5428   -1.0961    0.0000 C.ar    1  UNL1        0.0277
     22 C           3.6801   -1.2078    0.0000 C.ar    1  UNL1       -0.0160
     23 C           4.3284   -1.9095    0.0000 C.ar    1  UNL1        0.1621
     24 C           8.2299    1.8259    0.0000 C.3     1  UNL1        0.0489
     25 C           7.5291   -0.8497    0.0000 C.ar    1  UNL1       -0.0472
     26 C           8.5096    0.8485    0.0000 C.3     1  UNL1       -0.0176
     27 C           8.2520   -0.1349    0.0000 C.ar    1  UNL1       -0.0460
     28 C           7.1178   -1.9003    0.0000 C.ar    1  UNL1        0.1247
     29 C           8.6405   -1.0440    0.0000 C.ar    1  UNL1       -0.0551
     30 C           8.1062   -1.8758    0.0000 C.ar    1  UNL1       -0.0193
     31 C           5.6133   -3.4066    0.0000 C.3     1  UNL1        0.0790
     32 C           3.0489   -3.0770    0.0000 C.3     1  UNL1        0.0790
     33 H           3.8048    3.0554    0.0000 H       1  UNL1        0.0464
     34 H           5.2326    0.6837    0.0000 H       1  UNL1        0.0514
     35 H           5.0646    3.4104    0.0000 H       1  UNL1        0.0316
     36 H           4.2675    3.4104    0.0000 H       1  UNL1        0.0316
     37 H           5.5973    3.0520    0.0000 H       1  UNL1        0.0735
     38 H           3.3107    3.4399    0.0000 H       1  UNL1        0.0280
     39 H           2.5124    3.4492    0.0000 H       1  UNL1        0.0280
     40 H           5.7441    0.8529    0.0000 H       1  UNL1        0.0319
     41 H           6.1426    1.5431    0.0000 H       1  UNL1        0.0319
     42 H           2.5124    0.4218    0.0000 H       1  UNL1        0.0427
     43 H           3.3107    0.4310    0.0000 H       1  UNL1        0.0427
     44 H           1.7909    3.0400    0.0000 H       1  UNL1        0.0266
     45 H           1.3891    2.3502    0.0000 H       1  UNL1        0.0266
     46 H           1.3891    1.5208    0.0000 H       1  UNL1        0.0278
     47 H           1.7909    0.8310    0.0000 H       1  UNL1        0.0278
     48 H           3.5234    0.1556    0.0000 H       1  UNL1        0.0622
     49 H           3.0762   -1.3481    0.0000 H       1  UNL1        0.0655
     50 H           8.8485    1.7847    0.0000 H       1  UNL1        0.0381
     51 H           7.7001    1.5038    0.0000 H       1  UNL1        0.0381
     52 H           7.8330   -1.3901    0.0000 H       1  UNL1        0.0627
     53 H           9.0208    0.4977    0.0000 H       1  UNL1        0.0318
     54 H           7.8896    0.8415    0.0000 H       1  UNL1        0.0318
     55 H           9.2584   -1.0958    0.0000 H       1  UNL1        0.0621
     56 H           8.4101   -2.4162    0.0000 H       1  UNL1        0.0654
     57 H           5.0248   -3.2117    0.0000 H       1  UNL1        0.0660
     58 H           5.4184   -3.9952    0.0000 H       1  UNL1        0.0660
     59 H           6.2019   -3.6015    0.0000 H       1  UNL1        0.0660
     60 H           7.0137   -3.3122    0.0000 H       1  UNL1        0.2922
     61 H           2.9160   -2.4714    0.0000 H       1  UNL1        0.0660
     62 H           2.4434   -3.2099    0.0000 H       1  UNL1        0.0660
     63 H           3.1819   -3.6826    0.0000 H       1  UNL1        0.0660
@<TRIPOS>BOND
     1     1    10    1
     2     1    19    1
     3     2    20    1
     4     2    31    1
     5     3    19    2
     6     4    23    1
     7     4    32    1
     8     5    28    1
     9     5    60    1
    10     6     7    1
    11     6     8    1
    12     6    13    1
    13     7     9    1
    14     7    11    1
    15     7    33    1
    16     8    12    1
    17     8    16    1
    18     8    34    1
    19     9    10    1
    20     9    35    1
    21     9    36    1
    22    10    12    1
    23    10    37    1
    24    11    14    1
    25    11    38    1
    26    11    39    1
    27    12    40    1
    28    12    41    1
    29    13    15    1
    30    13    42    1
    31    13    43    1
    32    14    15    1
    33    14    44    1
    34    14    45    1
    35    15    46    1
    36    15    47    1
    37    16    17   ar
    38    16    18   ar
    39    17    20   ar
    40    17    21    1
    41    18    22   ar
    42    18    48    1
    43    19    24    1
    44    20    23   ar
    45    21    25   ar
    46    21    28   ar
    47    22    23   ar
    48    22    49    1
    49    24    26    1
    50    24    50    1
    51    24    51    1
    52    25    27   ar
    53    25    52    1
    54    26    27    1
    55    26    53    1
    56    26    54    1
    57    27    29   ar
    58    28    30   ar
    59    29    30   ar
    60    29    55    1
    61    30    56    1
    62    31    57    1
    63    31    58    1
    64    31    59    1
    65    32    61    1
    66    32    62    1
    67    32    63    1
