@<TRIPOS>MOLECULE
IMPHY008392
 108 112 0 0 0
SMALL
GASTEIGER

@<TRIPOS>ATOM
      1 O           6.8671   -4.6599    0.0000 O.3     1  UNL1       -0.3446
      2 O           7.7158    4.4130    0.0000 O.3     1  UNL1       -0.3889
      3 O           5.0897    4.7347    0.0000 O.3     1  UNL1       -0.3866
      4 O           7.3521    6.1064    0.0000 O.3     1  UNL1       -0.3863
      5 O           5.1350   -4.6599    0.0000 O.3     1  UNL1       -0.3405
      6 O           5.0329    7.3799    0.0000 O.3     1  UNL1       -0.3865
      7 O           6.8671   -6.6599    0.0000 O.3     1  UNL1       -0.3841
      8 O           5.1350   -7.6599    0.0000 O.3     1  UNL1       -0.3864
      9 O           3.4030   -6.6599    0.0000 O.3     1  UNL1       -0.3865
     10 O           2.5369   -5.1599    0.0000 O.3     1  UNL1       -0.3924
     11 C           7.7643    1.0403    0.0000 C.3     1  UNL1       -0.0228
     12 C           6.8963    1.5369    0.0000 C.3     1  UNL1       -0.0232
     13 C           7.7681    0.0403    0.0000 C.3     1  UNL1       -0.0257
     14 C           6.9040   -0.4630    0.0000 C.3     1  UNL1       -0.0219
     15 C           7.1018    2.5096    0.0000 C.3     1  UNL1       -0.0301
     16 C           6.0322    1.0336    0.0000 C.3     1  UNL1       -0.0463
     17 C           8.4987    1.7102    0.0000 C.3     1  UNL1       -0.0466
     18 C           6.0361    0.0336    0.0000 C.3     1  UNL1       -0.0463
     19 C           6.8920   -1.5046    0.0000 C.3     1  UNL1       -0.0136
     20 C           8.0901    2.6164    0.0000 C.3     1  UNL1       -0.0489
     21 C           8.6801   -0.4630    0.0000 C.3     1  UNL1       -0.0306
     22 C           8.6322    0.5436    0.0000 C.3     1  UNL1       -0.0588
     23 C           6.0284    2.0336    0.0000 C.3     1  UNL1       -0.0588
     24 C           6.4311    3.2513    0.0000 C.3     1  UNL1       -0.0119
     25 C           7.7920   -2.0289    0.0000 C.2     1  UNL1       -0.0617
     26 C           6.0399   -0.9664    0.0000 C.3     1  UNL1       -0.0587
     27 C           5.9421   -2.0289    0.0000 C.3     1  UNL1       -0.0436
     28 C           8.6921   -1.5046    0.0000 C.2     1  UNL1       -0.0836
     29 C           7.8046   -3.1138    0.0000 C.3     1  UNL1        0.0127
     30 C           5.9295   -3.1138    0.0000 C.3     1  UNL1       -0.0251
     31 C           6.8671   -3.6599    0.0000 C.3     1  UNL1        0.0706
     32 C           6.7381    4.2030    0.0000 C.3     1  UNL1        0.0864
     33 C           5.4534    3.0413    0.0000 C.3     1  UNL1       -0.0597
     34 C           8.8046   -3.1061    0.0000 C.3     1  UNL1       -0.0537
     35 C           8.3113   -3.9760    0.0000 C.3     1  UNL1       -0.0537
     36 C           6.0674    4.9447    0.0000 C.3     1  UNL1        0.1097
     37 C           6.3744    5.8964    0.0000 C.3     1  UNL1        0.1115
     38 C           6.0010   -5.1599    0.0000 C.3     1  UNL1        0.1882
     39 C           5.7036    6.6382    0.0000 C.3     1  UNL1        0.0888
     40 C           6.0010   -6.1599    0.0000 C.3     1  UNL1        0.1341
     41 C           5.1350   -6.6599    0.0000 C.3     1  UNL1        0.1141
     42 C           6.4454    7.3088    0.0000 C.3     1  UNL1       -0.0338
     43 C           4.9619    5.9674    0.0000 C.3     1  UNL1       -0.0338
     44 C           4.2690   -5.1599    0.0000 C.3     1  UNL1        0.1130
     45 C           4.2690   -6.1599    0.0000 C.3     1  UNL1        0.1119
     46 C           3.4030   -4.6599    0.0000 C.3     1  UNL1        0.0730
     47 H           8.4993    0.4738    0.0000 H       1  UNL1        0.0315
     48 H           7.4044    3.3039    0.0000 H       1  UNL1        0.0310
     49 H           5.8179    1.6154    0.0000 H       1  UNL1        0.0271
     50 H           5.4221    0.9236    0.0000 H       1  UNL1        0.0271
     51 H           8.8661    1.2108    0.0000 H       1  UNL1        0.0271
     52 H           9.0340    2.0230    0.0000 H       1  UNL1        0.0271
     53 H           5.4251    0.1389    0.0000 H       1  UNL1        0.0271
     54 H           5.8263   -0.5498    0.0000 H       1  UNL1        0.0271
     55 H           7.6314   -1.0853    0.0000 H       1  UNL1        0.0351
     56 H           8.6790    2.8105    0.0000 H       1  UNL1        0.0268
     57 H           7.9590    3.2224    0.0000 H       1  UNL1        0.0268
     58 H           9.2921   -0.5621    0.0000 H       1  UNL1        0.0310
     59 H           8.8824    0.1230    0.0000 H       1  UNL1        0.0310
     60 H           8.3243    0.0055    0.0000 H       1  UNL1        0.0235
     61 H           9.1703    0.2357    0.0000 H       1  UNL1        0.0235
     62 H           8.9401    1.0818    0.0000 H       1  UNL1        0.0235
     63 H           6.3363    2.5717    0.0000 H       1  UNL1        0.0235
     64 H           5.4902    2.3415    0.0000 H       1  UNL1        0.0235
     65 H           5.7204    1.4955    0.0000 H       1  UNL1        0.0235
     66 H           6.0152    3.7112    0.0000 H       1  UNL1        0.0327
     67 H           5.7279   -0.4306    0.0000 H       1  UNL1        0.0235
     68 H           5.5042   -1.2784    0.0000 H       1  UNL1        0.0235
     69 H           6.3520   -1.5021    0.0000 H       1  UNL1        0.0235
     70 H           5.7398   -1.4428    0.0000 H       1  UNL1        0.0272
     71 H           5.3300   -2.1279    0.0000 H       1  UNL1        0.0272
     72 H           9.2314   -1.8104    0.0000 H       1  UNL1        0.0572
     73 H           5.3199   -3.0007    0.0000 H       1  UNL1        0.0291
     74 H           5.7137   -3.6950    0.0000 H       1  UNL1        0.0291
     75 H           7.6040   -4.0835    0.0000 H       1  UNL1        0.0605
     76 H           6.9284    4.7930    0.0000 H       1  UNL1        0.0623
     77 H           5.3232    3.6475    0.0000 H       1  UNL1        0.0233
     78 H           4.8472    2.9111    0.0000 H       1  UNL1        0.0233
     79 H           5.5836    2.4351    0.0000 H       1  UNL1        0.0233
     80 H           8.8094   -3.7261    0.0000 H       1  UNL1        0.0239
     81 H           9.4246   -3.1013    0.0000 H       1  UNL1        0.0239
     82 H           8.7998   -2.4861    0.0000 H       1  UNL1        0.0239
     83 H           7.7767   -4.2901    0.0000 H       1  UNL1        0.0239
     84 H           8.6254   -4.5105    0.0000 H       1  UNL1        0.0239
     85 H           8.8458   -3.6618    0.0000 H       1  UNL1        0.0239
     86 H           5.8770    4.3546    0.0000 H       1  UNL1        0.0646
     87 H           7.9061    5.0030    0.0000 H       1  UNL1        0.2099
     88 H           6.7902    5.4366    0.0000 H       1  UNL1        0.0649
     89 H           6.0010   -4.5399    0.0000 H       1  UNL1        0.0937
     90 H           4.6738    5.1946    0.0000 H       1  UNL1        0.2100
     91 H           6.0010   -6.7799    0.0000 H       1  UNL1        0.0671
     92 H           7.5424    6.6965    0.0000 H       1  UNL1        0.2100
     93 H           4.5981   -6.9699    0.0000 H       1  UNL1        0.0648
     94 H           4.5461    6.4273    0.0000 H       1  UNL1        0.0258
     95 H           4.5021    5.5516    0.0000 H       1  UNL1        0.0258
     96 H           6.8612    6.8490    0.0000 H       1  UNL1        0.0258
     97 H           6.9052    7.7247    0.0000 H       1  UNL1        0.0258
     98 H           5.3778    5.5076    0.0000 H       1  UNL1        0.0258
     99 H           6.0295    7.7687    0.0000 H       1  UNL1        0.0258
    100 H           4.2690   -4.5399    0.0000 H       1  UNL1        0.0647
    101 H           3.7320   -5.8499    0.0000 H       1  UNL1        0.0647
    102 H           5.2233    7.9699    0.0000 H       1  UNL1        0.2102
    103 H           6.8671   -7.2799    0.0000 H       1  UNL1        0.2101
    104 H           3.8015   -4.1850    0.0000 H       1  UNL1        0.0584
    105 H           3.0044   -4.1850    0.0000 H       1  UNL1        0.0584
    106 H           4.5981   -7.9699    0.0000 H       1  UNL1        0.2100
    107 H           3.4030   -7.2799    0.0000 H       1  UNL1        0.2100
    108 H           2.0000   -4.8499    0.0000 H       1  UNL1        0.2095
@<TRIPOS>BOND
     1     1    31    1
     2    38     1    1
     3    32     2    1
     4     2    87    1
     5    36     3    1
     6     3    90    1
     7    37     4    1
     8     4    92    1
     9     5    38    1
    10     5    44    1
    11     6    39    1
    12     6   102    1
    13    40     7    1
    14     7   103    1
    15    41     8    1
    16     8   106    1
    17    45     9    1
    18     9   107    1
    19    10    46    1
    20    10   108    1
    21    11    12    1
    22    11    13    1
    23    11    17    1
    24    11    22    1
    25    12    15    1
    26    12    16    1
    27    12    23    1
    28    13    14    1
    29    13    21    1
    30    13    47    1
    31    14    18    1
    32    14    19    1
    33    14    26    1
    34    15    20    1
    35    15    24    1
    36    15    48    1
    37    16    18    1
    38    16    49    1
    39    16    50    1
    40    17    20    1
    41    17    51    1
    42    17    52    1
    43    18    53    1
    44    18    54    1
    45    19    25    1
    46    19    27    1
    47    19    55    1
    48    20    56    1
    49    20    57    1
    50    21    28    1
    51    21    58    1
    52    21    59    1
    53    22    60    1
    54    22    61    1
    55    22    62    1
    56    23    63    1
    57    23    64    1
    58    23    65    1
    59    24    32    1
    60    24    33    1
    61    24    66    1
    62    25    28    2
    63    25    29    1
    64    26    67    1
    65    26    68    1
    66    26    69    1
    67    27    30    1
    68    27    70    1
    69    27    71    1
    70    28    72    1
    71    29    31    1
    72    29    34    1
    73    29    35    1
    74    30    31    1
    75    30    73    1
    76    30    74    1
    77    31    75    1
    78    32    36    1
    79    32    76    1
    80    33    77    1
    81    33    78    1
    82    33    79    1
    83    34    80    1
    84    34    81    1
    85    34    82    1
    86    35    83    1
    87    35    84    1
    88    35    85    1
    89    36    37    1
    90    36    86    1
    91    37    39    1
    92    37    88    1
    93    38    40    1
    94    38    89    1
    95    39    42    1
    96    39    43    1
    97    40    41    1
    98    40    91    1
    99    41    45    1
   100    41    93    1
   101    42    96    1
   102    42    97    1
   103    42    99    1
   104    43    94    1
   105    43    95    1
   106    43    98    1
   107    44    45    1
   108    44    46    1
   109    44   100    1
   110    45   101    1
   111    46   104    1
   112    46   105    1
