@<TRIPOS>MOLECULE
IMPHY003139
 98 105 0 0 0
SMALL
GASTEIGER

@<TRIPOS>ATOM
      1 O           5.0958    4.2710    0.0000 O.3     1  UNL1       -0.4501
      2 O           8.3498    1.4821    0.0000 O.3     1  UNL1       -0.4514
      3 O           7.9383   -1.2428    0.0000 O.3     1  UNL1       -0.3281
      4 O           7.0741    4.2146    0.0000 O.3     1  UNL1       -0.3504
      5 O           5.4800    0.0026    0.0000 O.3     1  UNL1       -0.4476
      6 O           8.1249   -0.8583    0.0000 O.3     1  UNL1       -0.4500
      7 O           6.8876    5.8928    0.0000 O.3     1  UNL1       -0.3539
      8 O           5.9470    5.5533    0.0000 O.3     1  UNL1       -0.3539
      9 O           6.4402   -2.0897    0.0000 O.3     1  UNL1       -0.4275
     10 O           8.3817    5.4394    0.0000 O.2     1  UNL1       -0.2867
     11 O          10.0810    0.2981    0.0000 O.3     1  UNL1       -0.4584
     12 O           8.8373    3.0072    0.0000 O.2     1  UNL1       -0.2453
     13 O           3.0702    4.1470    0.0000 O.3     1  UNL1       -0.5009
     14 O           3.9550    0.4901    0.0000 O.2     1  UNL1       -0.2449
     15 O           2.2380    2.2721    0.0000 O.3     1  UNL1       -0.5032
     16 O           7.5367   -2.6984    0.0000 O.2     1  UNL1       -0.2449
     17 O           4.9361   -1.2307    0.0000 O.2     1  UNL1       -0.2449
     18 O          11.4872   -0.7131    0.0000 O.2     1  UNL1       -0.2450
     19 O           9.6647   -4.9362    0.0000 O.3     1  UNL1       -0.5032
     20 O          11.5375   -2.0220    0.0000 O.3     1  UNL1       -0.5032
     21 O          11.4423   -4.0197    0.0000 O.3     1  UNL1       -0.5009
     22 O           2.4484   -3.8405    0.0000 O.3     1  UNL1       -0.5032
     23 O           5.4564   -5.5584    0.0000 O.3     1  UNL1       -0.5032
     24 O           3.4565   -5.5678    0.0000 O.3     1  UNL1       -0.5009
     25 O          11.4215    3.6452    0.0000 O.3     1  UNL1       -0.5032
     26 O          14.2338    1.6227    0.0000 O.3     1  UNL1       -0.5032
     27 O          13.4115    3.4458    0.0000 O.3     1  UNL1       -0.5009
     28 C           6.2412    3.1403    0.0000 C.3     1  UNL1        0.0915
     29 C           6.0785    4.1210    0.0000 C.3     1  UNL1        0.2834
     30 C           5.3524    2.6821    0.0000 C.ar    1  UNL1        0.0263
     31 C           6.7113    4.9084    0.0000 C.3     1  UNL1        0.2977
     32 C           8.1140    0.5103    0.0000 C.3     1  UNL1        0.1730
     33 C           7.3903   -0.1798    0.0000 C.3     1  UNL1        0.1851
     34 C           7.2367    3.0452    0.0000 C.2     1  UNL1        0.0540
     35 C           6.4084   -0.3690    0.0000 C.3     1  UNL1        0.2053
     36 C           8.5022   -0.4140    0.0000 C.3     1  UNL1        0.1371
     37 C           4.6479    3.3835    0.0000 C.ar    1  UNL1        0.1741
     38 C           6.9361   -1.2213    0.0000 C.3     1  UNL1        0.2465
     39 C           4.8524    1.8161    0.0000 C.ar    1  UNL1        0.0701
     40 C           7.7012    4.7067    0.0000 C.2     1  UNL1        0.2218
     41 C           7.9753    3.7344    0.0000 C.2     1  UNL1       -0.0028
     42 C           8.0227    2.4271    0.0000 C.2     1  UNL1        0.3365
     43 C           9.4972   -0.5137    0.0000 C.3     1  UNL1        0.1226
     44 C           3.6394    3.3248    0.0000 C.ar    1  UNL1        0.2013
     45 C           4.8999    0.8172    0.0000 C.2     1  UNL1        0.3403
     46 C           3.8625    1.6141    0.0000 C.ar    1  UNL1       -0.0020
     47 C           3.2296    2.4014    0.0000 C.ar    1  UNL1        0.1628
     48 C           8.0774   -1.8572    0.0000 C.2     1  UNL1        0.3399
     49 C           5.4402   -2.0944    0.0000 C.2     1  UNL1        0.3417
     50 C           8.9186   -2.3978    0.0000 C.ar    1  UNL1        0.0661
     51 C          11.0761    0.1984    0.0000 C.2     1  UNL1        0.3395
     52 C           4.9443   -2.9627    0.0000 C.ar    1  UNL1        0.0662
     53 C           9.8074   -1.9396    0.0000 C.ar    1  UNL1       -0.0023
     54 C           8.8710   -3.3967    0.0000 C.ar    1  UNL1       -0.0023
     55 C          11.6599    1.0103    0.0000 C.ar    1  UNL1        0.0661
     56 C           5.4483   -3.8264    0.0000 C.ar    1  UNL1       -0.0023
     57 C           3.9443   -2.9674    0.0000 C.ar    1  UNL1       -0.0023
     58 C           9.7122   -3.9373    0.0000 C.ar    1  UNL1        0.1628
     59 C          10.6487   -2.4802    0.0000 C.ar    1  UNL1        0.1628
     60 C          12.6549    0.9105    0.0000 C.ar    1  UNL1       -0.0023
     61 C          11.2488    1.9218    0.0000 C.ar    1  UNL1       -0.0023
     62 C          10.6011   -3.4791    0.0000 C.ar    1  UNL1        0.2006
     63 C           3.4484   -3.8358    0.0000 C.ar    1  UNL1        0.1628
     64 C           4.9524   -4.6948    0.0000 C.ar    1  UNL1        0.1628
     65 C           3.9524   -4.6995    0.0000 C.ar    1  UNL1        0.2006
     66 C          11.8327    2.7337    0.0000 C.ar    1  UNL1        0.1628
     67 C          13.2388    1.7224    0.0000 C.ar    1  UNL1        0.1628
     68 C          12.8277    2.6340    0.0000 C.ar    1  UNL1        0.2006
     69 H           5.4737    3.5056    0.0000 H       1  UNL1        0.0467
     70 H           7.3779    0.9353    0.0000 H       1  UNL1        0.0801
     71 H           7.2204   -0.7760    0.0000 H       1  UNL1        0.0813
     72 H           5.8617   -1.0199    0.0000 H       1  UNL1        0.0837
     73 H           8.7644   -0.9758    0.0000 H       1  UNL1        0.0670
     74 H           6.3162   -1.2323    0.0000 H       1  UNL1        0.1098
     75 H           8.5724    3.5675    0.0000 H       1  UNL1        0.0659
     76 H           6.8157    3.6510    0.0000 H       1  UNL1        0.2140
     77 H           9.3292   -1.1105    0.0000 H       1  UNL1        0.0725
     78 H          10.0557   -0.7828    0.0000 H       1  UNL1        0.0725
     79 H           3.6522    1.0309    0.0000 H       1  UNL1        0.0663
     80 H           7.4707    6.1033    0.0000 H       1  UNL1        0.2134
     81 H           5.3638    5.3428    0.0000 H       1  UNL1        0.2134
     82 H           2.4522    4.0962    0.0000 H       1  UNL1        0.2924
     83 H           2.0000    1.6996    0.0000 H       1  UNL1        0.2923
     84 H           9.8369   -1.3203    0.0000 H       1  UNL1        0.0663
     85 H           8.3199   -3.6808    0.0000 H       1  UNL1        0.0663
     86 H           6.0683   -3.8235    0.0000 H       1  UNL1        0.0663
     87 H           3.6318   -2.4320    0.0000 H       1  UNL1        0.0663
     88 H          12.9099    0.3454    0.0000 H       1  UNL1        0.0663
     89 H          10.6319    1.9837    0.0000 H       1  UNL1        0.0663
     90 H          10.1862   -5.2714    0.0000 H       1  UNL1        0.2923
     91 H          12.0591   -2.3572    0.0000 H       1  UNL1        0.2923
     92 H          11.4128   -4.6390    0.0000 H       1  UNL1        0.2924
     93 H           2.1409   -4.3789    0.0000 H       1  UNL1        0.2923
     94 H           6.0764   -5.5555    0.0000 H       1  UNL1        0.2923
     95 H           3.7690   -6.1033    0.0000 H       1  UNL1        0.2924
     96 H          11.7835    4.1486    0.0000 H       1  UNL1        0.2923
     97 H          14.4887    1.0575    0.0000 H       1  UNL1        0.2923
     98 H          14.0285    3.3840    0.0000 H       1  UNL1        0.2924
@<TRIPOS>BOND
     1     1    29    1
     2     1    37    1
     3     2    32    1
     4     2    42    1
     5     3    36    1
     6     3    38    1
     7     4    29    1
     8     4    76    1
     9     5    35    1
    10     5    45    1
    11    33     6    1
    12     6    48    1
    13     7    31    1
    14     7    80    1
    15     8    31    1
    16     8    81    1
    17    38     9    1
    18     9    49    1
    19    10    40    2
    20    11    43    1
    21    11    51    1
    22    12    42    2
    23    13    44    1
    24    13    82    1
    25    14    45    2
    26    15    47    1
    27    15    83    1
    28    16    48    2
    29    17    49    2
    30    18    51    2
    31    19    58    1
    32    19    90    1
    33    20    59    1
    34    20    91    1
    35    21    62    1
    36    21    92    1
    37    22    63    1
    38    22    93    1
    39    23    64    1
    40    23    94    1
    41    24    65    1
    42    24    95    1
    43    25    66    1
    44    25    96    1
    45    26    67    1
    46    26    97    1
    47    27    68    1
    48    27    98    1
    49    28    29    1
    50    28    30    1
    51    28    34    1
    52    28    69    1
    53    29    31    1
    54    30    37   ar
    55    30    39   ar
    56    31    40    1
    57    32    33    1
    58    32    36    1
    59    32    70    1
    60    33    35    1
    61    33    71    1
    62    34    41    2
    63    34    42    1
    64    35    38    1
    65    35    72    1
    66    36    43    1
    67    36    73    1
    68    37    44   ar
    69    38    74    1
    70    39    45    1
    71    39    46   ar
    72    40    41    1
    73    41    75    1
    74    43    77    1
    75    43    78    1
    76    44    47   ar
    77    46    47   ar
    78    46    79    1
    79    48    50    1
    80    49    52    1
    81    50    53   ar
    82    50    54   ar
    83    51    55    1
    84    52    56   ar
    85    52    57   ar
    86    53    59   ar
    87    53    84    1
    88    54    58   ar
    89    54    85    1
    90    55    60   ar
    91    55    61   ar
    92    56    64   ar
    93    56    86    1
    94    57    63   ar
    95    57    87    1
    96    58    62   ar
    97    59    62   ar
    98    60    67   ar
    99    60    88    1
   100    61    66   ar
   101    61    89    1
   102    63    65   ar
   103    64    65   ar
   104    66    68   ar
   105    67    68   ar
