@<TRIPOS>MOLECULE
IMPHY004509
 28 30 0 0 0
SMALL
GASTEIGER

@<TRIPOS>ATOM
      1 O           2.9757    1.9147    0.0000 O.3     1  UNL1       -0.4930
      2 O           8.9488   -1.3408    0.0000 O.2     1  UNL1       -0.2957
      3 N           5.0981    1.3156    0.0000 N.ar    1  UNL1       -0.3513
      4 C           4.5981   -0.2232    0.0000 C.ar    1  UNL1        0.0110
      5 C           5.5981   -0.2232    0.0000 C.ar    1  UNL1        0.0082
      6 C           4.2891    0.7278    0.0000 C.ar    1  UNL1        0.0897
      7 C           5.9071    0.7278    0.0000 C.ar    1  UNL1        0.0476
      8 C           3.2737    0.9601    0.0000 C.ar    1  UNL1        0.1439
      9 C           6.2831   -1.0079    0.0000 C.ar    1  UNL1       -0.0418
     10 C           3.9131   -1.0079    0.0000 C.ar    1  UNL1       -0.0518
     11 C           6.9225    0.9601    0.0000 C.ar    1  UNL1       -0.0371
     12 C           7.3036   -0.7992    0.0000 C.ar    1  UNL1        0.0149
     13 C           2.5707    0.1914    0.0000 C.ar    1  UNL1       -0.0179
     14 C           7.6255    0.1914    0.0000 C.ar    1  UNL1       -0.0496
     15 C           2.8926   -0.7992    0.0000 C.ar    1  UNL1       -0.0576
     16 C           7.9698   -1.5450    0.0000 C.2     1  UNL1        0.1502
     17 C           2.0000    2.1339    0.0000 C.3     1  UNL1        0.0789
     18 H           5.0981    1.9356    0.0000 H       1  UNL1        0.1660
     19 H           6.0847   -1.5954    0.0000 H       1  UNL1        0.0631
     20 H           4.1115   -1.5954    0.0000 H       1  UNL1        0.0624
     21 H           7.1073    1.5519    0.0000 H       1  UNL1        0.0638
     22 H           1.9648    0.3227    0.0000 H       1  UNL1        0.0655
     23 H           8.2314    0.3227    0.0000 H       1  UNL1        0.0625
     24 H           2.4795   -1.2616    0.0000 H       1  UNL1        0.0619
     25 H           7.7760   -2.1339    0.0000 H       1  UNL1        0.1081
     26 H           2.1359    2.7388    0.0000 H       1  UNL1        0.0660
     27 H           1.3951    2.2698    0.0000 H       1  UNL1        0.0660
     28 H           1.8641    1.5290    0.0000 H       1  UNL1        0.0660
@<TRIPOS>BOND
     1     1     8    1
     2     1    17    1
     3     2    16    2
     4     3     6   ar
     5     3     7   ar
     6     3    18    1
     7     4     5   ar
     8     4     6   ar
     9     4    10   ar
    10     5     7   ar
    11     5     9   ar
    12     6     8   ar
    13     7    11   ar
    14     8    13   ar
    15     9    12   ar
    16     9    19    1
    17    10    15   ar
    18    10    20    1
    19    11    14   ar
    20    11    21    1
    21    12    14   ar
    22    12    16    1
    23    13    15   ar
    24    13    22    1
    25    14    23    1
    26    15    24    1
    27    16    25    1
    28    17    26    1
    29    17    27    1
    30    17    28    1
