@<TRIPOS>MOLECULE
IMPHY006487
 26 27 0 0 0
SMALL
GASTEIGER

@<TRIPOS>ATOM
      1 C           2.8660   -1.2500    0.0000 C.ar    1  UNL1       -0.0250
      2 C           3.7320    1.2500    0.0000 C.ar    1  UNL1       -0.0250
      3 C           2.8660   -0.2500    0.0000 C.2     1  UNL1       -0.0540
      4 C           3.7320    0.2500    0.0000 C.2     1  UNL1       -0.0540
      5 C           2.0000   -1.7500    0.0000 C.ar    1  UNL1       -0.0546
      6 C           4.5981    1.7500    0.0000 C.ar    1  UNL1       -0.0546
      7 C           3.7320   -1.7500    0.0000 C.ar    1  UNL1       -0.0546
      8 C           2.8660    1.7500    0.0000 C.ar    1  UNL1       -0.0546
      9 C           2.0000   -2.7500    0.0000 C.ar    1  UNL1       -0.0612
     10 C           4.5981    2.7500    0.0000 C.ar    1  UNL1       -0.0612
     11 C           3.7320   -2.7500    0.0000 C.ar    1  UNL1       -0.0612
     12 C           2.8660    2.7500    0.0000 C.ar    1  UNL1       -0.0612
     13 C           2.8660   -3.2500    0.0000 C.ar    1  UNL1       -0.0617
     14 C           3.7320    3.2500    0.0000 C.ar    1  UNL1       -0.0617
     15 H           2.3291    0.0600    0.0000 H       1  UNL1        0.0624
     16 H           4.2690   -0.0600    0.0000 H       1  UNL1        0.0624
     17 H           1.4631   -1.4400    0.0000 H       1  UNL1        0.0623
     18 H           5.1350    1.4400    0.0000 H       1  UNL1        0.0623
     19 H           4.2690   -1.4400    0.0000 H       1  UNL1        0.0623
     20 H           2.3291    1.4400    0.0000 H       1  UNL1        0.0623
     21 H           1.4631   -3.0600    0.0000 H       1  UNL1        0.0618
     22 H           5.1350    3.0600    0.0000 H       1  UNL1        0.0618
     23 H           4.2690   -3.0600    0.0000 H       1  UNL1        0.0618
     24 H           2.3291    3.0600    0.0000 H       1  UNL1        0.0618
     25 H           2.8660   -3.8700    0.0000 H       1  UNL1        0.0618
     26 H           3.7320    3.8700    0.0000 H       1  UNL1        0.0618
@<TRIPOS>BOND
     1     1     3    1
     2     1     5   ar
     3     1     7   ar
     4     2     4    1
     5     2     6   ar
     6     2     8   ar
     7     3     4    2
     8     3    15    1
     9     4    16    1
    10     5     9   ar
    11     5    17    1
    12     6    10   ar
    13     6    18    1
    14     7    11   ar
    15     7    19    1
    16     8    12   ar
    17     8    20    1
    18     9    13   ar
    19     9    21    1
    20    10    14   ar
    21    10    22    1
    22    11    13   ar
    23    11    23    1
    24    12    14   ar
    25    12    24    1
    26    13    25    1
    27    14    26    1
