@<TRIPOS>MOLECULE
IMPHY010836
 23 23 0 0 0
SMALL
GASTEIGER

@<TRIPOS>ATOM
      1 O           4.5981    1.0000    0.0000 O.3     1  UNL1       -0.3876
      2 O           2.8660    2.0000    0.0000 O.3     1  UNL1       -0.3891
      3 O           4.5981   -2.0000    0.0000 O.3     1  UNL1       -0.3934
      4 N           2.8660   -1.0000    0.0000 N.3     1  UNL1       -0.3089
      5 CA          3.7320   -0.5000    0.0000 C.3     1  UNL1        0.0594
      6 C           3.7320    0.5000    0.0000 C.3     1  UNL1        0.0984
      7 C           2.8660    1.0000    0.0000 C.3     1  UNL1        0.0837
      8 C           2.0000    0.5000    0.0000 C.3     1  UNL1       -0.0118
      9 C           2.0000   -0.5000    0.0000 C.3     1  UNL1       -0.0013
     10 C           4.5981   -1.0000    0.0000 C.3     1  UNL1        0.0620
     11 HA          3.7320   -1.1200    0.0000 H       1  UNL1        0.0509
     12 H           3.7320    1.1200    0.0000 H       1  UNL1        0.0635
     13 H           2.3291    1.3100    0.0000 H       1  UNL1        0.0620
     14 H           1.7880    1.0826    0.0000 H       1  UNL1        0.0303
     15 H           1.3894    0.3923    0.0000 H       1  UNL1        0.0303
     16 H           1.3894   -0.3923    0.0000 H       1  UNL1        0.0425
     17 H           1.7880   -1.0826    0.0000 H       1  UNL1        0.0425
     18 H           2.8660   -1.6200    0.0000 H       1  UNL1        0.1224
     19 H1          5.2087   -1.1077    0.0000 H       1  UNL1        0.0573
     20 H2          4.8101   -0.4174    0.0000 H       1  UNL1        0.0573
     21 H           4.5981    1.6200    0.0000 H       1  UNL1        0.2100
     22 H           2.3291    2.3100    0.0000 H       1  UNL1        0.2099
     23 H           5.1350   -2.3100    0.0000 H       1  UNL1        0.2095
@<TRIPOS>BOND
     1     6     1    1
     2     1    21    1
     3     7     2    1
     4     2    22    1
     5     3    10    1
     6     3    23    1
     7     4     5    1
     8     4     9    1
     9     4    18    1
    10     5     6    1
    11     5    10    1
    12     5    11    1
    13     6     7    1
    14     6    12    1
    15     7     8    1
    16     7    13    1
    17     8     9    1
    18     8    14    1
    19     8    15    1
    20     9    16    1
    21     9    17    1
    22    10    19    1
    23    10    20    1
