@<TRIPOS>MOLECULE
IMPHY014231
 80 81 0 0 0
SMALL
GASTEIGER

@<TRIPOS>ATOM
      1 O           4.5000   -3.0490    0.0000 O.3     1  UNL1       -0.3882
      2 O           5.9624    0.5532    0.0000 O.3     1  UNL1       -0.3905
      3 O           5.8660    3.0490    0.0000 O.3     1  UNL1       -0.3950
      4 O           2.1340    2.0490    0.0000 O.2     1  UNL1       -0.2960
      5 C           5.0000   -1.1830    0.0000 C.3     1  UNL1        0.0322
      6 C           4.5000   -2.0490    0.0000 C.3     1  UNL1        0.0721
      7 C           4.5000   -0.3170    0.0000 C.3     1  UNL1       -0.0086
      8 C           5.5878   -0.3740    0.0000 C.3     1  UNL1        0.0707
      9 C           5.5878   -1.9920    0.0000 C.3     1  UNL1       -0.0412
     10 C           6.5388   -0.6830    0.0000 C.3     1  UNL1        0.0103
     11 C           6.5388   -1.6830    0.0000 C.3     1  UNL1       -0.0432
     12 C           3.5000   -2.0490    0.0000 C.3     1  UNL1       -0.0199
     13 C           3.5000   -0.3170    0.0000 C.2     1  UNL1       -0.0597
     14 C           3.0000   -1.1830    0.0000 C.3     1  UNL1       -0.0282
     15 C           5.0000    0.5490    0.0000 C.3     1  UNL1       -0.0437
     16 C           5.2660   -2.6918    0.0000 C.3     1  UNL1       -0.0354
     17 C           7.3479   -0.0952    0.0000 C.2     1  UNL1       -0.0489
     18 C           5.0000    1.5490    0.0000 C.3     1  UNL1       -0.0292
     19 C           3.0000    0.5490    0.0000 C.2     1  UNL1       -0.0117
     20 C           8.2614   -0.5020    0.0000 C.2     1  UNL1       -0.0588
     21 C           7.2433    0.8993    0.0000 C.2     1  UNL1       -0.0951
     22 C           5.8660    2.0490    0.0000 C.3     1  UNL1        0.0442
     23 C           2.0000    0.5490    0.0000 C.3     1  UNL1       -0.0367
     24 C           3.0000    1.5490    0.0000 C.2     1  UNL1        0.1460
     25 C           9.0704    0.0858    0.0000 C.2     1  UNL1       -0.0616
     26 C           9.9840   -0.3209    0.0000 C.2     1  UNL1       -0.0628
     27 C          10.7930    0.2669    0.0000 C.2     1  UNL1       -0.0723
     28 C          11.7065   -0.1399    0.0000 C.3     1  UNL1       -0.0283
     29 C          10.6885    1.2614    0.0000 C.3     1  UNL1       -0.0435
     30 C          12.5155    0.4479    0.0000 C.3     1  UNL1       -0.0308
     31 C          13.4291    0.0412    0.0000 C.2     1  UNL1       -0.0850
     32 C          14.2381    0.6290    0.0000 C.2     1  UNL1       -0.0796
     33 C          15.1517    0.2222    0.0000 C.3     1  UNL1       -0.0440
     34 C          14.1336    1.6235    0.0000 C.3     1  UNL1       -0.0440
     35 H           5.1200   -0.3170    0.0000 H       1  UNL1        0.0353
     36 H           5.0455   -0.0734    0.0000 H       1  UNL1        0.0606
     37 H           5.0508   -2.3020    0.0000 H       1  UNL1        0.0273
     38 H           5.8400   -2.5584    0.0000 H       1  UNL1        0.0273
     39 H           6.4418   -0.0706    0.0000 H       1  UNL1        0.0374
     40 H           6.6678   -2.2895    0.0000 H       1  UNL1        0.0272
     41 H           7.1554   -1.6182    0.0000 H       1  UNL1        0.0272
     42 H           2.9174   -2.2611    0.0000 H       1  UNL1        0.0296
     43 H           3.6077   -2.6596    0.0000 H       1  UNL1        0.0296
     44 H           2.5250   -0.7845    0.0000 H       1  UNL1        0.0311
     45 H           2.5250   -1.5815    0.0000 H       1  UNL1        0.0311
     46 H           5.3985    0.0741    0.0000 H       1  UNL1        0.0272
     47 H           4.4011    0.7095    0.0000 H       1  UNL1        0.0272
     48 H           4.8675   -3.1668    0.0000 H       1  UNL1        0.0257
     49 H           5.7410   -3.0904    0.0000 H       1  UNL1        0.0257
     50 H           5.6646   -2.2169    0.0000 H       1  UNL1        0.0257
     51 H           3.9631   -3.3590    0.0000 H       1  UNL1        0.2102
     52 H           6.5764    0.6395    0.0000 H       1  UNL1        0.2098
     53 H           4.7880    2.1316    0.0000 H       1  UNL1        0.0287
     54 H           4.3894    1.4414    0.0000 H       1  UNL1        0.0287
     55 H           8.3262   -1.1186    0.0000 H       1  UNL1        0.0620
     56 H           7.7449    1.2637    0.0000 H       1  UNL1        0.0538
     57 H           6.6769    1.1515    0.0000 H       1  UNL1        0.0538
     58 H           6.0781    1.4664    0.0000 H       1  UNL1        0.0557
     59 H           6.4766    2.1567    0.0000 H       1  UNL1        0.0557
     60 H           2.0000    1.1690    0.0000 H       1  UNL1        0.0278
     61 H           1.3800    0.5490    0.0000 H       1  UNL1        0.0278
     62 H           2.0000   -0.0710    0.0000 H       1  UNL1        0.0278
     63 H           3.5369    1.8590    0.0000 H       1  UNL1        0.1078
     64 H           9.0056    0.7024    0.0000 H       1  UNL1        0.0618
     65 H           6.4030    3.3590    0.0000 H       1  UNL1        0.2094
     66 H          10.0488   -0.9375    0.0000 H       1  UNL1        0.0617
     67 H          11.3598   -0.6539    0.0000 H       1  UNL1        0.0313
     68 H          12.1525   -0.5706    0.0000 H       1  UNL1        0.0313
     69 H          11.3051    1.3262    0.0000 H       1  UNL1        0.0274
     70 H          10.6236    1.8780    0.0000 H       1  UNL1        0.0274
     71 H          10.0719    1.1966    0.0000 H       1  UNL1        0.0274
     72 H          12.8622    0.9619    0.0000 H       1  UNL1        0.0310
     73 H          12.0696    0.8786    0.0000 H       1  UNL1        0.0310
     74 H          13.4939   -0.5754    0.0000 H       1  UNL1        0.0572
     75 H          14.8995   -0.3442    0.0000 H       1  UNL1        0.0274
     76 H          15.7181   -0.0299    0.0000 H       1  UNL1        0.0274
     77 H          15.4038    0.7886    0.0000 H       1  UNL1        0.0274
     78 H          14.7502    1.6883    0.0000 H       1  UNL1        0.0274
     79 H          14.0688    2.2401    0.0000 H       1  UNL1        0.0274
     80 H          13.5170    1.5587    0.0000 H       1  UNL1        0.0274
@<TRIPOS>BOND
     1     6     1    1
     2     1    51    1
     3     8     2    1
     4     2    52    1
     5     3    22    1
     6     3    65    1
     7     4    24    2
     8     5     6    1
     9     5     7    1
    10     5     8    1
    11     5     9    1
    12     6    12    1
    13     6    16    1
    14     7    13    1
    15     7    15    1
    16     7    35    1
    17     8    10    1
    18     8    36    1
    19     9    11    1
    20     9    37    1
    21     9    38    1
    22    10    11    1
    23    10    17    1
    24    10    39    1
    25    11    40    1
    26    11    41    1
    27    12    14    1
    28    12    42    1
    29    12    43    1
    30    13    14    1
    31    13    19    2
    32    14    44    1
    33    14    45    1
    34    15    18    1
    35    15    46    1
    36    15    47    1
    37    16    48    1
    38    16    49    1
    39    16    50    1
    40    17    20    1
    41    17    21    2
    42    18    22    1
    43    18    53    1
    44    18    54    1
    45    19    23    1
    46    19    24    1
    47    20    25    2
    48    20    55    1
    49    21    56    1
    50    21    57    1
    51    22    58    1
    52    22    59    1
    53    23    60    1
    54    23    61    1
    55    23    62    1
    56    24    63    1
    57    25    26    1
    58    25    64    1
    59    26    27    2
    60    26    66    1
    61    27    28    1
    62    27    29    1
    63    28    30    1
    64    28    67    1
    65    28    68    1
    66    29    69    1
    67    29    70    1
    68    29    71    1
    69    30    31    1
    70    30    72    1
    71    30    73    1
    72    31    32    2
    73    31    74    1
    74    32    33    1
    75    32    34    1
    76    33    75    1
    77    33    76    1
    78    33    77    1
    79    34    78    1
    80    34    79    1
    81    34    80    1
