@<TRIPOS>MOLECULE
IMPHY006981
 16 17 0 0 0
SMALL
GASTEIGER

@<TRIPOS>ATOM
      1 N           4.6783   -0.6077    0.0000 N.ar    1  UNL1       -0.3606
      2 C           3.7320   -0.3030    0.0000 C.ar    1  UNL1        0.0465
      3 C           3.7320    0.6970    0.0000 C.ar    1  UNL1       -0.0004
      4 C           4.6783    1.0018    0.0000 C.ar    1  UNL1       -0.0367
      5 C           2.8660   -0.8030    0.0000 C.ar    1  UNL1       -0.0378
      6 C           2.8660    1.1970    0.0000 C.ar    1  UNL1       -0.0526
      7 C           5.2619    0.1970    0.0000 C.ar    1  UNL1        0.0027
      8 C           2.0000   -0.3030    0.0000 C.ar    1  UNL1       -0.0598
      9 C           2.0000    0.6970    0.0000 C.ar    1  UNL1       -0.0611
     10 H           4.8709   -1.1970    0.0000 H       1  UNL1        0.1653
     11 H           4.8709    1.5911    0.0000 H       1  UNL1        0.0638
     12 H           2.8660   -1.4230    0.0000 H       1  UNL1        0.0638
     13 H           2.8660    1.8170    0.0000 H       1  UNL1        0.0624
     14 H           5.8819    0.1970    0.0000 H       1  UNL1        0.0807
     15 H           1.4631   -0.6130    0.0000 H       1  UNL1        0.0618
     16 H           1.4631    1.0070    0.0000 H       1  UNL1        0.0618
@<TRIPOS>BOND
     1     1     2   ar
     2     1     7   ar
     3     1    10    1
     4     2     3   ar
     5     2     5   ar
     6     3     4   ar
     7     3     6   ar
     8     4     7   ar
     9     4    11    1
    10     5     8   ar
    11     5    12    1
    12     6     9   ar
    13     6    13    1
    14     7    14    1
    15     8     9   ar
    16     8    15    1
    17     9    16    1
