@<TRIPOS>MOLECULE
IMPHY007396
 28 28 0 0 0
SMALL
GASTEIGER

@<TRIPOS>ATOM
      1 O           3.4030    0.6550    0.0000 O.2     1  UNL1       -0.2916
      2 O           2.5369   -0.8450    0.0000 O.3     1  UNL1       -0.5028
      3 O           6.0010    3.1550    0.0000 O.3     1  UNL1       -0.4806
      4 O           2.5369   -2.8450    0.0000 O.3     1  UNL1       -0.5033
      5 O           6.8671    1.6550    0.0000 O.2     1  UNL1       -0.2510
      6 C           5.1350    0.6550    0.0000 C.3     1  UNL1        0.0295
      7 C           5.1350    1.6550    0.0000 C.3     1  UNL1        0.0543
      8 C           4.2690    0.1550    0.0000 C.2     1  UNL1        0.1701
      9 C           6.0010    0.1550    0.0000 C.3     1  UNL1       -0.0548
     10 C           4.2690   -0.8450    0.0000 C.ar    1  UNL1        0.0627
     11 C           3.4030   -1.3450    0.0000 C.ar    1  UNL1        0.1689
     12 C           5.1350   -1.3450    0.0000 C.ar    1  UNL1       -0.0475
     13 C           6.0010    2.1550    0.0000 C.2     1  UNL1        0.3054
     14 C           3.4030   -2.3450    0.0000 C.ar    1  UNL1        0.1589
     15 C           5.1350   -2.3450    0.0000 C.ar    1  UNL1       -0.0574
     16 C           4.2690   -2.8450    0.0000 C.ar    1  UNL1       -0.0165
     17 H           5.1350    0.0350    0.0000 H       1  UNL1        0.0383
     18 H           4.9230    2.2376    0.0000 H       1  UNL1        0.0384
     19 H           4.5244    1.5473    0.0000 H       1  UNL1        0.0384
     20 H           5.6910   -0.3819    0.0000 H       1  UNL1        0.0237
     21 H           6.5380   -0.1550    0.0000 H       1  UNL1        0.0237
     22 H           6.3110    0.6919    0.0000 H       1  UNL1        0.0237
     23 H           5.6720   -1.0350    0.0000 H       1  UNL1        0.0626
     24 H           5.6720   -2.6550    0.0000 H       1  UNL1        0.0619
     25 H           4.2690   -3.4650    0.0000 H       1  UNL1        0.0655
     26 H           2.0000   -1.1550    0.0000 H       1  UNL1        0.2923
     27 H           6.5380    3.4650    0.0000 H       1  UNL1        0.2951
     28 H           2.5369   -3.4650    0.0000 H       1  UNL1        0.2923
@<TRIPOS>BOND
     1     1     8    2
     2     2    11    1
     3     2    26    1
     4     3    13    1
     5     3    27    1
     6     4    14    1
     7     4    28    1
     8     5    13    2
     9     6     7    1
    10     6     8    1
    11     6     9    1
    12     6    17    1
    13     7    13    1
    14     7    18    1
    15     7    19    1
    16     8    10    1
    17     9    20    1
    18     9    21    1
    19     9    22    1
    20    10    11   ar
    21    10    12   ar
    22    11    14   ar
    23    12    15   ar
    24    12    23    1
    25    14    16   ar
    26    15    16   ar
    27    15    24    1
    28    16    25    1
