@<TRIPOS>MOLECULE
IMPHY016462
 29 29 0 0 0
SMALL
GASTEIGER

@<TRIPOS>ATOM
      1 C           2.8660   -1.0000    0.0000 C.3     1  UNL1       -0.0192
      2 C           2.8660    0.0000    0.0000 C.3     1  UNL1       -0.0465
      3 C           3.7320    0.5000    0.0000 C.3     1  UNL1       -0.0525
      4 C           2.0000   -1.5000    0.0000 C.3     1  UNL1       -0.0282
      5 C           3.7320    1.5000    0.0000 C.3     1  UNL1       -0.0533
      6 C           3.7320   -1.5000    0.0000 C.2     1  UNL1       -0.0806
      7 C           4.5981    2.0000    0.0000 C.3     1  UNL1       -0.0559
      8 C           2.0000   -2.5000    0.0000 C.2     1  UNL1       -0.0835
      9 C           3.7320   -2.5000    0.0000 C.2     1  UNL1       -0.0657
     10 C           2.8660   -3.0000    0.0000 C.2     1  UNL1       -0.0660
     11 C           4.5981    3.0000    0.0000 C.3     1  UNL1       -0.0653
     12 H           3.4030   -0.6900    0.0000 H       1  UNL1        0.0346
     13 H           2.6540    0.5826    0.0000 H       1  UNL1        0.0271
     14 H           2.2554   -0.1077    0.0000 H       1  UNL1        0.0271
     15 H           3.9441   -0.0826    0.0000 H       1  UNL1        0.0265
     16 H           4.3426    0.6077    0.0000 H       1  UNL1        0.0265
     17 H           1.7880   -0.9174    0.0000 H       1  UNL1        0.0313
     18 H           1.3894   -1.6077    0.0000 H       1  UNL1        0.0313
     19 H           3.5200    2.0826    0.0000 H       1  UNL1        0.0265
     20 H           3.1215    1.3923    0.0000 H       1  UNL1        0.0265
     21 H           4.2690   -1.1900    0.0000 H       1  UNL1        0.0575
     22 H           4.8101    1.4174    0.0000 H       1  UNL1        0.0263
     23 H           5.2087    2.1077    0.0000 H       1  UNL1        0.0263
     24 H           1.4631   -2.8100    0.0000 H       1  UNL1        0.0572
     25 H           4.2690   -2.8100    0.0000 H       1  UNL1        0.0614
     26 H           2.8660   -3.6200    0.0000 H       1  UNL1        0.0614
     27 H           5.2181    3.0000    0.0000 H       1  UNL1        0.0230
     28 H           4.5981    3.6200    0.0000 H       1  UNL1        0.0230
     29 H           3.9781    3.0000    0.0000 H       1  UNL1        0.0230
@<TRIPOS>BOND
     1     1     2    1
     2     1     4    1
     3     1     6    1
     4     1    12    1
     5     2     3    1
     6     2    13    1
     7     2    14    1
     8     3     5    1
     9     3    15    1
    10     3    16    1
    11     4     8    1
    12     4    17    1
    13     4    18    1
    14     5     7    1
    15     5    19    1
    16     5    20    1
    17     6     9    2
    18     6    21    1
    19     7    11    1
    20     7    22    1
    21     7    23    1
    22     8    10    2
    23     8    24    1
    24     9    10    1
    25     9    25    1
    26    10    26    1
    27    11    27    1
    28    11    28    1
    29    11    29    1
