@<TRIPOS>MOLECULE
IMPHY013149
 74 78 0 0 0
SMALL
GASTEIGER

@<TRIPOS>ATOM
      1 O           6.8671   -0.6725    0.0000 O.3     1  UNL1       -0.3313
      2 O           4.2690   -3.1725    0.0000 O.3     1  UNL1       -0.3405
      3 O           6.0010   -3.1725    0.0000 O.3     1  UNL1       -0.3460
      4 O           7.7331   -3.1725    0.0000 O.3     1  UNL1       -0.3865
      5 O           9.4651   -2.1725    0.0000 O.3     1  UNL1       -0.3864
      6 O           7.7331    0.8275    0.0000 O.3     1  UNL1       -0.4534
      7 O           6.0010   -5.1725    0.0000 O.3     1  UNL1       -0.3841
      8 O           9.4651   -0.1725    0.0000 O.3     1  UNL1       -0.3829
      9 O           4.2690   -6.1725    0.0000 O.3     1  UNL1       -0.3864
     10 O           2.5369   -5.1725    0.0000 O.3     1  UNL1       -0.3865
     11 O           2.5369   -2.1725    0.0000 O.3     1  UNL1       -0.3924
     12 O           7.7771    2.8343    0.0000 O.2     1  UNL1       -0.4507
     13 O           6.0010   -0.1725    0.0000 O.3     1  UNL1       -0.5031
     14 O           4.2690    2.8275    0.0000 O.3     1  UNL1       -0.5058
     15 O           5.1132    4.3589    0.0000 O.2     1  UNL1       -0.2869
     16 O          11.2492    3.8626    0.0000 O.3     1  UNL1       -0.5033
     17 O          11.2569    5.8625    0.0000 O.3     1  UNL1       -0.5033
     18 C           6.8671   -1.6725    0.0000 C.3     1  UNL1        0.1144
     19 C           7.7331   -2.1725    0.0000 C.3     1  UNL1        0.1120
     20 C           8.5991   -1.6725    0.0000 C.3     1  UNL1        0.1152
     21 C           5.1350   -4.6725    0.0000 C.3     1  UNL1        0.1341
     22 C           8.5991   -0.6725    0.0000 C.3     1  UNL1        0.1454
     23 C           4.2690   -5.1725    0.0000 C.3     1  UNL1        0.1141
     24 C           5.1350   -3.6725    0.0000 C.3     1  UNL1        0.1880
     25 C           3.4030   -4.6725    0.0000 C.3     1  UNL1        0.1119
     26 C           3.4030   -3.6725    0.0000 C.3     1  UNL1        0.1130
     27 C           7.7331   -0.1725    0.0000 C.3     1  UNL1        0.2311
     28 C           6.0010   -2.1725    0.0000 C.3     1  UNL1        0.0796
     29 C           2.5369   -3.1725    0.0000 C.3     1  UNL1        0.0730
     30 C           6.8671    1.3275    0.0000 C.ar    1  UNL1        0.2080
     31 C           6.8671    2.3275    0.0000 C.ar    1  UNL1        0.1879
     32 C           6.0010    0.8275    0.0000 C.ar    1  UNL1        0.1658
     33 C           6.0010    2.8275    0.0000 C.ar    1  UNL1        0.1091
     34 C           5.1350    1.3275    0.0000 C.ar    1  UNL1        0.0259
     35 C           5.1350    2.3275    0.0000 C.ar    1  UNL1        0.1349
     36 C           5.9850    3.8690    0.0000 C.ar    1  UNL1        0.1967
     37 C           7.7851    3.8759    0.0000 C.ar    1  UNL1        0.1395
     38 C           6.8830    4.3967    0.0000 C.ar    1  UNL1        0.0288
     39 C           8.6530    4.3726    0.0000 C.ar    1  UNL1        0.0211
     40 C           9.5171    3.8692    0.0000 C.ar    1  UNL1       -0.0059
     41 C           8.6569    5.3726    0.0000 C.ar    1  UNL1       -0.0474
     42 C          10.3851    4.3659    0.0000 C.ar    1  UNL1        0.1589
     43 C           9.5248    5.8692    0.0000 C.ar    1  UNL1       -0.0159
     44 C          10.3889    5.3659    0.0000 C.ar    1  UNL1        0.1583
     45 H           6.3301   -1.3625    0.0000 H       1  UNL1        0.0647
     46 H           8.2700   -2.4825    0.0000 H       1  UNL1        0.0647
     47 H           9.1360   -1.3625    0.0000 H       1  UNL1        0.0648
     48 H           5.1350   -5.2925    0.0000 H       1  UNL1        0.0671
     49 H           8.5991   -0.0525    0.0000 H       1  UNL1        0.0683
     50 H           3.7320   -5.4825    0.0000 H       1  UNL1        0.0648
     51 H           5.1350   -3.0525    0.0000 H       1  UNL1        0.0937
     52 H           3.4030   -5.2925    0.0000 H       1  UNL1        0.0647
     53 H           3.4030   -3.0525    0.0000 H       1  UNL1        0.0647
     54 H           7.1962    0.1375    0.0000 H       1  UNL1        0.1084
     55 H           5.7890   -1.5899    0.0000 H       1  UNL1        0.0587
     56 H           5.3905   -2.2802    0.0000 H       1  UNL1        0.0587
     57 H           1.9264   -3.0649    0.0000 H       1  UNL1        0.0584
     58 H           2.3249   -3.7552    0.0000 H       1  UNL1        0.0584
     59 H           8.2700   -3.4825    0.0000 H       1  UNL1        0.2100
     60 H          10.0021   -1.8625    0.0000 H       1  UNL1        0.2100
     61 H           6.5380   -4.8625    0.0000 H       1  UNL1        0.2101
     62 H           9.4651    0.4475    0.0000 H       1  UNL1        0.2102
     63 H           3.7320   -6.4825    0.0000 H       1  UNL1        0.2100
     64 H           2.0000   -4.8625    0.0000 H       1  UNL1        0.2100
     65 H           2.0000   -1.8625    0.0000 H       1  UNL1        0.2095
     66 H           4.5981    1.0175    0.0000 H       1  UNL1        0.0692
     67 H           6.8806    5.0167    0.0000 H       1  UNL1        0.0693
     68 H           5.4641   -0.4825    0.0000 H       1  UNL1        0.2923
     69 H           3.7320    2.5175    0.0000 H       1  UNL1        0.2922
     70 H           9.5147    3.2492    0.0000 H       1  UNL1        0.0662
     71 H           8.1212    5.6846    0.0000 H       1  UNL1        0.0626
     72 H           9.5272    6.4892    0.0000 H       1  UNL1        0.0655
     73 H          11.7873    4.1705    0.0000 H       1  UNL1        0.2923
     74 H          11.2593    6.4825    0.0000 H       1  UNL1        0.2923
@<TRIPOS>BOND
     1     1    18    1
     2     1    27    1
     3     2    24    1
     4     2    26    1
     5     3    24    1
     6     3    28    1
     7     4    19    1
     8     4    59    1
     9     5    20    1
    10     5    60    1
    11     6    27    1
    12     6    30    1
    13     7    21    1
    14     7    61    1
    15     8    22    1
    16     8    62    1
    17     9    23    1
    18     9    63    1
    19    10    25    1
    20    10    64    1
    21    11    29    1
    22    11    65    1
    23    12    31   ar
    24    12    37   ar
    25    13    32    1
    26    13    68    1
    27    14    35    1
    28    14    69    1
    29    15    36    2
    30    16    42    1
    31    16    73    1
    32    17    44    1
    33    17    74    1
    34    18    19    1
    35    18    28    1
    36    18    45    1
    37    19    20    1
    38    19    46    1
    39    20    22    1
    40    20    47    1
    41    21    23    1
    42    21    24    1
    43    21    48    1
    44    22    27    1
    45    22    49    1
    46    23    25    1
    47    23    50    1
    48    24    51    1
    49    25    26    1
    50    25    52    1
    51    26    29    1
    52    26    53    1
    53    27    54    1
    54    28    55    1
    55    28    56    1
    56    29    57    1
    57    29    58    1
    58    30    31   ar
    59    30    32   ar
    60    31    33   ar
    61    32    34   ar
    62    33    35   ar
    63    33    36   ar
    64    34    35   ar
    65    34    66    1
    66    36    38   ar
    67    37    38   ar
    68    37    39    1
    69    38    67    1
    70    39    40   ar
    71    39    41   ar
    72    40    42   ar
    73    40    70    1
    74    41    43   ar
    75    41    71    1
    76    42    44   ar
    77    43    44   ar
    78    43    72    1
