@<TRIPOS>MOLECULE
IMPHY010350
 55 58 0 0 0
SMALL
GASTEIGER

@<TRIPOS>ATOM
      1 O           7.5587   -2.5301    0.0000 O.3     1  UNL1       -0.4646
      2 O           9.5747   -0.3085    0.0000 O.2     1  UNL1       -0.5021
      3 O           6.2760   -1.3662    0.0000 O.2     1  UNL1       -0.2452
      4 N           6.9654    2.0780    0.0000 N.3     1  UNL1       -0.2934
      5 N           4.5124    0.9605    0.0000 N.ar    1  UNL1       -0.3564
      6 C           6.2962    1.3348    0.0000 C.3     1  UNL1        0.0515
      7 C           8.3170    0.8890    0.0000 C.3     1  UNL1       -0.0213
      8 C           7.6200    0.1149    0.0000 C.3     1  UNL1       -0.0004
      9 C           6.6028    0.3393    0.0000 C.3     1  UNL1       -0.0244
     10 C           7.9875    1.8771    0.0000 C.3     1  UNL1        0.0029
     11 C           5.3181    1.5427    0.0000 C.ar    1  UNL1        0.0376
     12 C           6.6564    3.0290    0.0000 C.3     1  UNL1        0.0036
     13 C           5.0091    2.4938    0.0000 C.ar    1  UNL1       -0.0164
     14 C           5.6782    3.2369    0.0000 C.3     1  UNL1       -0.0125
     15 C           9.2959    0.6848    0.0000 C.3     1  UNL1       -0.0513
     16 C           7.9253   -0.8373    0.0000 C.2     1  UNL1        0.0740
     17 C           4.0150    2.4912    0.0000 C.ar    1  UNL1        0.0032
     18 C           3.7086    1.5455    0.0000 C.ar    1  UNL1        0.0470
     19 C           9.9622    1.4306    0.0000 C.3     1  UNL1       -0.0650
     20 C           7.2533   -1.5779    0.0000 C.2     1  UNL1        0.3381
     21 C           8.9027   -1.0490    0.0000 C.2     1  UNL1        0.0943
     22 C           3.3334    3.2707    0.0000 C.ar    1  UNL1       -0.0523
     23 C           2.6994    1.3138    0.0000 C.ar    1  UNL1       -0.0378
     24 C           2.3191    3.0624    0.0000 C.ar    1  UNL1       -0.0611
     25 C           2.0000    2.0773    0.0000 C.ar    1  UNL1       -0.0598
     26 C           6.8867   -3.2707    0.0000 C.3     1  UNL1        0.0820
     27 C          10.5520   -0.5201    0.0000 C.3     1  UNL1        0.0780
     28 H           5.7226    0.7075    0.0000 H       1  UNL1        0.0527
     29 H           8.5097    0.2997    0.0000 H       1  UNL1        0.0319
     30 H           8.2262   -0.0152    0.0000 H       1  UNL1        0.0356
     31 H           5.9878    0.2609    0.0000 H       1  UNL1        0.0290
     32 H           6.5748   -0.2800    0.0000 H       1  UNL1        0.0290
     33 H           8.6005    1.9697    0.0000 H       1  UNL1        0.0430
     34 H           8.0011    2.4970    0.0000 H       1  UNL1        0.0430
     35 H           7.2703    3.1153    0.0000 H       1  UNL1        0.0430
     36 H           6.6780    3.6486    0.0000 H       1  UNL1        0.0430
     37 H           5.9105    3.8118    0.0000 H       1  UNL1        0.0326
     38 H           5.1524    3.5655    0.0000 H       1  UNL1        0.0326
     39 H           9.0659    0.1091    0.0000 H       1  UNL1        0.0266
     40 H           9.8230    0.3583    0.0000 H       1  UNL1        0.0266
     41 H           4.5113    0.3405    0.0000 H       1  UNL1        0.1656
     42 H          10.4245    1.0175    0.0000 H       1  UNL1        0.0230
     43 H          10.3752    1.8929    0.0000 H       1  UNL1        0.0230
     44 H           9.4998    1.8436    0.0000 H       1  UNL1        0.0230
     45 H           9.0920   -1.6394    0.0000 H       1  UNL1        0.1028
     46 H           3.5313    3.8583    0.0000 H       1  UNL1        0.0624
     47 H           2.5152    0.7218    0.0000 H       1  UNL1        0.0638
     48 H           1.9056    3.5243    0.0000 H       1  UNL1        0.0618
     49 H           1.3942    1.9455    0.0000 H       1  UNL1        0.0618
     50 H           6.4276   -2.8541    0.0000 H       1  UNL1        0.0661
     51 H           6.4701   -3.7298    0.0000 H       1  UNL1        0.0661
     52 H           7.3458   -3.6873    0.0000 H       1  UNL1        0.0661
     53 H          10.4208   -1.1261    0.0000 H       1  UNL1        0.0660
     54 H          11.1579   -0.6514    0.0000 H       1  UNL1        0.0660
     55 H          10.6832    0.0858    0.0000 H       1  UNL1        0.0660
@<TRIPOS>BOND
     1     1    20    1
     2     1    26    1
     3     2    21    1
     4     2    27    1
     5     3    20    2
     6     4     6    1
     7     4    10    1
     8     4    12    1
     9     5    11   ar
    10     5    18   ar
    11     5    41    1
    12     6     9    1
    13     6    11    1
    14     6    28    1
    15     7     8    1
    16     7    10    1
    17     7    15    1
    18     7    29    1
    19     8     9    1
    20     8    16    1
    21     8    30    1
    22     9    31    1
    23     9    32    1
    24    10    33    1
    25    10    34    1
    26    11    13   ar
    27    12    14    1
    28    12    35    1
    29    12    36    1
    30    13    14    1
    31    13    17   ar
    32    14    37    1
    33    14    38    1
    34    15    19    1
    35    15    39    1
    36    15    40    1
    37    16    20    1
    38    16    21    2
    39    17    18   ar
    40    17    22   ar
    41    18    23   ar
    42    19    42    1
    43    19    43    1
    44    19    44    1
    45    21    45    1
    46    22    24   ar
    47    22    46    1
    48    23    25   ar
    49    23    47    1
    50    24    25   ar
    51    24    48    1
    52    25    49    1
    53    26    50    1
    54    26    51    1
    55    26    52    1
    56    27    53    1
    57    27    54    1
    58    27    55    1
