@<TRIPOS>MOLECULE
IMPHY016796
 22 22 0 0 0
SMALL
GASTEIGER

@<TRIPOS>ATOM
      1 C           2.8660    0.2500    0.0000 C.ar    1  UNL1       -0.0436
      2 C           2.8660    1.2500    0.0000 C.3     1  UNL1       -0.0097
      3 C           2.8660   -1.7500    0.0000 C.ar    1  UNL1       -0.0504
      4 C           2.0000   -0.2500    0.0000 C.ar    1  UNL1       -0.0580
      5 C           3.7320   -0.2500    0.0000 C.ar    1  UNL1       -0.0580
      6 C           2.0000   -1.2500    0.0000 C.ar    1  UNL1       -0.0586
      7 C           3.7320   -1.2500    0.0000 C.ar    1  UNL1       -0.0586
      8 C           2.8660   -2.7500    0.0000 C.3     1  UNL1       -0.0397
      9 C           3.7320    1.7500    0.0000 C.2     1  UNL1       -0.0868
     10 C           3.7320    2.7500    0.0000 C.2     1  UNL1       -0.1023
     11 H           2.6540    1.8326    0.0000 H       1  UNL1        0.0355
     12 H           2.2554    1.1423    0.0000 H       1  UNL1        0.0355
     13 H           1.4631    0.0600    0.0000 H       1  UNL1        0.0620
     14 H           4.2690    0.0600    0.0000 H       1  UNL1        0.0620
     15 H           1.4631   -1.5600    0.0000 H       1  UNL1        0.0620
     16 H           4.2690   -1.5600    0.0000 H       1  UNL1        0.0620
     17 H           2.2460   -2.7500    0.0000 H       1  UNL1        0.0278
     18 H           2.8660   -3.3700    0.0000 H       1  UNL1        0.0278
     19 H           3.4860   -2.7500    0.0000 H       1  UNL1        0.0278
     20 H           4.2690    1.4400    0.0000 H       1  UNL1        0.0570
     21 H           4.2690    3.0600    0.0000 H       1  UNL1        0.0532
     22 H           3.1951    3.0600    0.0000 H       1  UNL1        0.0532
@<TRIPOS>BOND
     1     1     2    1
     2     1     4   ar
     3     1     5   ar
     4     2     9    1
     5     2    11    1
     6     2    12    1
     7     3     6   ar
     8     3     7   ar
     9     3     8    1
    10     4     6   ar
    11     4    13    1
    12     5     7   ar
    13     5    14    1
    14     6    15    1
    15     7    16    1
    16     8    17    1
    17     8    18    1
    18     8    19    1
    19     9    10    2
    20     9    20    1
    21    10    21    1
    22    10    22    1
