@<TRIPOS>MOLECULE
IMPHY002573
 95 105 0 0 0
SMALL
GASTEIGER

@<TRIPOS>ATOM
      1 C        2603.8200 2570.0700    0.0000 C.3     1  UNL1        0.0001
      2 C        2603.8200 2530.0700    0.0000 C.3     1  UNL1        0.0023
      3 C        2638.3600 2550.2200    0.0000 C.3     1  UNL1        0.0299
      4 C        2638.3600 2590.5200    0.0000 C.3     1  UNL1        0.0071
      5 C        2673.0000 2610.6700    0.0000 C.3     1  UNL1        0.0554
      6 C        2707.5400 2590.5200    0.0000 C.3     1  UNL1        0.1176
      7 C        2684.5200 2553.1000    0.0000 C.3     1  UNL1        0.0320
      8 O        2707.5400 2550.2200    0.0000 O.3     1  UNL1       -0.3562
      9 C        2673.0000 2530.0700    0.0000 C.3     1  UNL1        0.1420
     10 C        2673.0000 2694.7400    0.0000 C.3     1  UNL1        0.1316
     11 C        2707.6400 2714.6900    0.0000 C.3     1  UNL1        0.0646
     12 C        2742.2800 2694.7400    0.0000 C.3     1  UNL1        0.1417
     13 O        2776.9200 2714.6900    0.0000 O.3     1  UNL1       -0.3265
     14 C        2811.5600 2694.7400    0.0000 C.3     1  UNL1        0.2697
     15 O        2811.5600 2654.7400    0.0000 O.3     1  UNL1       -0.3256
     16 C        2846.1000 2634.6900    0.0000 C.3     1  UNL1        0.1835
     17 C        2846.1000 2594.6900    0.0000 C.3     1  UNL1        0.2142
     18 O        2880.7400 2574.7400    0.0000 O.3     1  UNL1       -0.2176
     19 C        2880.8400 2654.7400    0.0000 C.3     1  UNL1        0.2144
     20 C        2880.8400 2694.7400    0.0000 C.3     1  UNL1        0.2198
     21 C        2846.1000 2714.6900    0.0000 C.3     1  UNL1        0.2406
     22 O        2846.1000 2754.6900    0.0000 O.3     1  UNL1       -0.2149
     23 O        2915.4800 2714.6900    0.0000 O.3     1  UNL1       -0.2174
     24 O        2915.4800 2634.6900    0.0000 O.3     1  UNL1       -0.2176
     25 C        2742.2800 2635.9800    0.0000 C.2     1  UNL1       -0.0055
     26 C        2776.9200 2615.9300    0.0000 C.2     1  UNL1       -0.0455
     27 C        2811.5600 2635.9800    0.0000 C.3     1  UNL1        0.0261
     28 C        2776.9200 2575.9300    0.0000 C.3     1  UNL1        0.0261
     29 C        2652.9500 2729.3800    0.0000 C.3     1  UNL1        0.0331
     30 O        2632.9000 2694.7400    0.0000 O.3     1  UNL1       -0.2255
     31 C        2603.8200 2610.6700    0.0000 C.3     1  UNL1        0.0002
     32 C        2569.2800 2590.5200    0.0000 C.3     1  UNL1        0.0000
     33 C        2569.2800 2550.2200    0.0000 C.3     1  UNL1        0.0001
     34 C        2534.7400 2530.0700    0.0000 C.3     1  UNL1        0.0002
     35 C        2534.7400 2570.0700    0.0000 C.3     1  UNL1        0.0000
     36 C        2534.7400 2489.6800    0.0000 C.3     1  UNL1        0.0023
     37 C        2569.2800 2469.5300    0.0000 C.3     1  UNL1        0.0001
     38 C        2603.8200 2489.6800    0.0000 C.3     1  UNL1        0.0001
     39 C        2500.2000 2469.5300    0.0000 C.3     1  UNL1        0.0251
     40 C        2474.4900 2438.9600    0.0000 C.3     1  UNL1        0.0024
     41 C        2525.9100 2438.9600    0.0000 C.3     1  UNL1        0.0024
     42 C        2465.6600 2489.6800    0.0000 C.3     1  UNL1        0.1177
     43 C        2465.6600 2528.5900    0.0000 C.3     1  UNL1        0.0296
     44 C        2500.2000 2550.2200    0.0000 C.3     1  UNL1        0.0025
     45 O        2430.9200 2469.7300    0.0000 O.3     1  UNL1       -0.3312
     46 C        2396.2800 2489.6800    0.0000 C.3     1  UNL1        0.2660
     47 C        2361.7400 2469.7300    0.0000 C.3     1  UNL1        0.2035
     48 O        2361.7400 2350.3200    0.0000 O.3     1  UNL1       -0.3232
     49 C        2327.1000 2330.3700    0.0000 C.3     1  UNL1        0.2695
     50 C        2292.4600 2350.3200    0.0000 C.3     1  UNL1        0.2406
     51 O        2292.4600 2390.3200    0.0000 O.3     1  UNL1       -0.2149
     52 C        2257.8200 2330.3700    0.0000 C.3     1  UNL1        0.2197
     53 O        2223.1800 2350.3200    0.0000 O.3     1  UNL1       -0.2174
     54 C        2257.8200 2290.3700    0.0000 C.3     1  UNL1        0.2118
     55 C        2292.4600 2270.3200    0.0000 C.3     1  UNL1        0.1508
     56 O        2327.1000 2290.3700    0.0000 O.3     1  UNL1       -0.3284
     57 C        2292.4600 2230.3200    0.0000 C.3     1  UNL1        0.0350
     58 O        2223.1800 2270.3200    0.0000 O.3     1  UNL1       -0.2177
     59 C        2327.0000 2489.6800    0.0000 C.3     1  UNL1        0.1826
     60 O        2292.3600 2469.7300    0.0000 O.3     1  UNL1       -0.3257
     61 C        2257.7200 2489.6800    0.0000 C.3     1  UNL1        0.2663
     62 C        2223.1800 2469.7300    0.0000 C.3     1  UNL1        0.2066
     63 O        2223.1800 2429.7300    0.0000 O.3     1  UNL1       -0.3231
     64 C        2188.5400 2409.6800    0.0000 C.3     1  UNL1        0.2696
     65 C        2153.9000 2429.7300    0.0000 C.3     1  UNL1        0.2406
     66 O        2153.9000 2469.7300    0.0000 O.3     1  UNL1       -0.2149
     67 C        2119.2600 2409.6800    0.0000 C.3     1  UNL1        0.2198
     68 O        2084.5200 2429.7300    0.0000 O.3     1  UNL1       -0.2174
     69 C        2119.2600 2369.6800    0.0000 C.3     1  UNL1        0.2143
     70 C        2153.9000 2349.7300    0.0000 C.3     1  UNL1        0.1803
     71 O        2188.5400 2369.6800    0.0000 O.3     1  UNL1       -0.3257
     72 O        2084.5200 2349.7300    0.0000 O.3     1  UNL1       -0.2176
     73 C        2188.4400 2489.6800    0.0000 C.3     1  UNL1        0.2166
     74 O        2104.3700 2488.9800    0.0000 O.3     1  UNL1       -0.2175
     75 C        2188.4400 2529.6800    0.0000 C.3     1  UNL1        0.2142
     76 C        2223.1800 2549.7300    0.0000 C.3     1  UNL1        0.1802
     77 O        2257.7200 2529.6800    0.0000 O.3     1  UNL1       -0.3258
     78 C        2223.1800 2589.7300    0.0000 C.3     1  UNL1        0.1770
     79 O        2188.5400 2609.6800    0.0000 O.3     1  UNL1       -0.3259
     80 C        2188.5400 2649.6800    0.0000 C.3     1  UNL1        0.2695
     81 O        2153.9000 2669.7300    0.0000 O.3     1  UNL1       -0.3256
     82 C        2153.9000 2709.7300    0.0000 C.3     1  UNL1        0.1835
     83 C        2119.2600 2729.6800    0.0000 C.3     1  UNL1        0.2142
     84 O        2084.6200 2709.7300    0.0000 O.3     1  UNL1       -0.2176
     85 C        2188.5400 2729.6800    0.0000 C.3     1  UNL1        0.2144
     86 C        2223.1800 2709.7300    0.0000 C.3     1  UNL1        0.2198
     87 C        2223.1800 2669.7300    0.0000 C.3     1  UNL1        0.2406
     88 O        2257.8200 2649.6800    0.0000 O.3     1  UNL1       -0.2149
     89 O        2257.8200 2729.6800    0.0000 O.3     1  UNL1       -0.2174
     90 O        2188.5400 2769.6800    0.0000 O.3     1  UNL1       -0.2176
     91 O        2153.8000 2549.7300    0.0000 O.3     1  UNL1       -0.2176
     92 C        2327.0000 2529.6800    0.0000 C.3     1  UNL1        0.2110
     93 C        2361.7400 2549.7300    0.0000 C.3     1  UNL1        0.1802
     94 O        2396.2800 2529.6800    0.0000 O.3     1  UNL1       -0.3258
     95 O        2292.3600 2549.7300    0.0000 O.3     1  UNL1       -0.2177
@<TRIPOS>BOND
     1     2     1    1
     2     2     3    1
     3     2    33    1
     4     2    38    1
     5     3     4    1
     6     3     7    1
     7     3     9    1
     8     4     5    1
     9     4    31    1
    10     5     6    1
    11     5    10    1
    12     6     7    1
    13     6     8    1
    14     9     8    1
    15    10    11    1
    16    10    29    1
    17    10    30    1
    18    12    11    1
    19    12    13    1
    20    12    25    1
    21    14    13    1
    22    14    15    1
    23    14    21    1
    24    15    16    1
    25    16    17    1
    26    16    19    1
    27    17    18    1
    28    19    24    1
    29    20    19    1
    30    20    23    1
    31    21    20    1
    32    21    22    1
    33    25    26    2
    34    26    27    1
    35    26    28    1
    36    32    31    1
    37    33    32    1
    38    33    34    1
    39    34    35    1
    40    34    36    1
    41    34    44    1
    42    36    39    1
    43    36    37    1
    44    38    37    1
    45    39    40    1
    46    39    41    1
    47    39    42    1
    48    42    45    1
    49    43    42    1
    50    44    43    1
    51    46    45    1
    52    46    47    1
    53    46    94    1
    54    47    48    1
    55    47    59    1
    56    49    48    1
    57    49    50    1
    58    49    56    1
    59    50    51    1
    60    50    52    1
    61    52    53    1
    62    52    54    1
    63    54    58    1
    64    55    54    1
    65    55    57    1
    66    56    55    1
    67    59    60    1
    68    59    92    1
    69    61    60    1
    70    61    62    1
    71    61    77    1
    72    62    63    1
    73    62    73    1
    74    64    63    1
    75    64    65    1
    76    64    71    1
    77    65    66    1
    78    65    67    1
    79    67    68    1
    80    67    69    1
    81    69    72    1
    82    70    69    1
    83    71    70    1
    84    73    74    1
    85    73    75    1
    86    75    91    1
    87    76    75    1
    88    76    78    1
    89    77    76    1
    90    78    79    1
    91    80    79    1
    92    80    81    1
    93    80    87    1
    94    81    82    1
    95    82    83    1
    96    82    85    1
    97    83    84    1
    98    85    90    1
    99    86    85    1
   100    86    89    1
   101    87    86    1
   102    87    88    1
   103    92    95    1
   104    93    92    1
   105    94    93    1
