@<TRIPOS>MOLECULE
IMPHY011410
 97 97 0 0 0
SMALL
GASTEIGER

@<TRIPOS>ATOM
      1 O           3.8660  -10.8450    0.0000 O.3     1  UNL1       -0.3914
      2 C           3.0000   -8.3450    0.0000 C.3     1  UNL1       -0.0076
      3 C           3.0000   -9.3450    0.0000 C.3     1  UNL1       -0.0174
      4 C           3.8660   -9.8450    0.0000 C.3     1  UNL1        0.0597
      5 C           3.8660   -7.8450    0.0000 C.2     1  UNL1       -0.0426
      6 C           4.7320   -9.3450    0.0000 C.3     1  UNL1       -0.0053
      7 C           4.7320   -8.3450    0.0000 C.2     1  UNL1       -0.0665
      8 C           2.0000   -8.3450    0.0000 C.3     1  UNL1       -0.0557
      9 C           2.5000   -7.4790    0.0000 C.3     1  UNL1       -0.0557
     10 C           3.8660   -6.8450    0.0000 C.2     1  UNL1       -0.0579
     11 C           5.5981   -7.8450    0.0000 C.3     1  UNL1       -0.0431
     12 C           4.7320   -6.3450    0.0000 C.2     1  UNL1       -0.0586
     13 C           4.7320   -5.3450    0.0000 C.2     1  UNL1       -0.0504
     14 C           3.8660   -4.8450    0.0000 C.3     1  UNL1       -0.0397
     15 C           5.5981   -4.8450    0.0000 C.2     1  UNL1       -0.0588
     16 C           5.5981   -3.8450    0.0000 C.2     1  UNL1       -0.0613
     17 C           6.4641   -3.3450    0.0000 C.2     1  UNL1       -0.0588
     18 C           6.4641   -2.3450    0.0000 C.2     1  UNL1       -0.0504
     19 C           5.5981   -1.8450    0.0000 C.3     1  UNL1       -0.0397
     20 C           7.3301   -1.8450    0.0000 C.2     1  UNL1       -0.0588
     21 C          12.5263    8.1550    0.0000 C.3     1  UNL1       -0.0283
     22 C          13.3923    8.6550    0.0000 C.3     1  UNL1       -0.0308
     23 C          12.5263    7.1550    0.0000 C.2     1  UNL1       -0.0723
     24 C           7.3301   -0.8450    0.0000 C.2     1  UNL1       -0.0615
     25 C          13.3923    9.6550    0.0000 C.2     1  UNL1       -0.0850
     26 C          14.2583   10.1550    0.0000 C.2     1  UNL1       -0.0796
     27 C          13.3923    6.6550    0.0000 C.3     1  UNL1       -0.0435
     28 C          11.6603    6.6550    0.0000 C.2     1  UNL1       -0.0628
     29 C           8.1962   -0.3450    0.0000 C.2     1  UNL1       -0.0615
     30 C          14.2583   11.1550    0.0000 C.3     1  UNL1       -0.0440
     31 C          15.1244    9.6550    0.0000 C.3     1  UNL1       -0.0440
     32 C          11.6603    5.6550    0.0000 C.2     1  UNL1       -0.0616
     33 C          10.7942    5.1550    0.0000 C.2     1  UNL1       -0.0588
     34 C           8.1962    0.6550    0.0000 C.2     1  UNL1       -0.0588
     35 C          10.7942    4.1550    0.0000 C.2     1  UNL1       -0.0504
     36 C           9.0622    1.1550    0.0000 C.2     1  UNL1       -0.0504
     37 C           9.9282    3.6550    0.0000 C.2     1  UNL1       -0.0588
     38 C          11.6603    3.6550    0.0000 C.3     1  UNL1       -0.0397
     39 C           9.0622    2.1550    0.0000 C.2     1  UNL1       -0.0588
     40 C           9.9282    2.6550    0.0000 C.2     1  UNL1       -0.0613
     41 C           9.9282    0.6550    0.0000 C.3     1  UNL1       -0.0397
     42 H           2.3894   -9.2373    0.0000 H       1  UNL1        0.0298
     43 H           2.7880   -9.9276    0.0000 H       1  UNL1        0.0298
     44 H           4.4030  -10.1550    0.0000 H       1  UNL1        0.0596
     45 H           4.9441   -9.9276    0.0000 H       1  UNL1        0.0335
     46 H           5.3426   -9.2373    0.0000 H       1  UNL1        0.0335
     47 H           2.0000   -7.7250    0.0000 H       1  UNL1        0.0238
     48 H           1.3800   -8.3450    0.0000 H       1  UNL1        0.0238
     49 H           2.0000   -8.9650    0.0000 H       1  UNL1        0.0238
     50 H           3.0369   -7.1690    0.0000 H       1  UNL1        0.0238
     51 H           2.1900   -6.9420    0.0000 H       1  UNL1        0.0238
     52 H           1.9631   -7.7890    0.0000 H       1  UNL1        0.0238
     53 H           3.3291   -6.5350    0.0000 H       1  UNL1        0.0621
     54 H           5.9081   -8.3819    0.0000 H       1  UNL1        0.0275
     55 H           6.1350   -7.5350    0.0000 H       1  UNL1        0.0275
     56 H           5.2881   -7.3081    0.0000 H       1  UNL1        0.0275
     57 H           4.4030  -11.1550    0.0000 H       1  UNL1        0.2098
     58 H           5.2690   -6.6550    0.0000 H       1  UNL1        0.0620
     59 H           4.1760   -4.3081    0.0000 H       1  UNL1        0.0278
     60 H           3.3291   -4.5350    0.0000 H       1  UNL1        0.0278
     61 H           3.5560   -5.3819    0.0000 H       1  UNL1        0.0278
     62 H           6.1350   -5.1550    0.0000 H       1  UNL1        0.0620
     63 H           5.0611   -3.5350    0.0000 H       1  UNL1        0.0618
     64 H           7.0010   -3.6550    0.0000 H       1  UNL1        0.0620
     65 H           5.9081   -1.3081    0.0000 H       1  UNL1        0.0278
     66 H           5.0611   -1.5350    0.0000 H       1  UNL1        0.0278
     67 H           5.2881   -2.3819    0.0000 H       1  UNL1        0.0278
     68 H           7.8671   -2.1550    0.0000 H       1  UNL1        0.0620
     69 H          12.3142    8.7376    0.0000 H       1  UNL1        0.0313
     70 H          11.9157    8.0473    0.0000 H       1  UNL1        0.0313
     71 H          13.6044    8.0724    0.0000 H       1  UNL1        0.0310
     72 H          14.0029    8.7627    0.0000 H       1  UNL1        0.0310
     73 H           6.7932   -0.5350    0.0000 H       1  UNL1        0.0618
     74 H          12.8554    9.9650    0.0000 H       1  UNL1        0.0572
     75 H          13.0823    6.1181    0.0000 H       1  UNL1        0.0274
     76 H          13.9292    6.3450    0.0000 H       1  UNL1        0.0274
     77 H          13.7023    7.1919    0.0000 H       1  UNL1        0.0274
     78 H          11.1233    6.9650    0.0000 H       1  UNL1        0.0617
     79 H           8.7331   -0.6550    0.0000 H       1  UNL1        0.0618
     80 H          14.8783   11.1550    0.0000 H       1  UNL1        0.0274
     81 H          14.2583   11.7750    0.0000 H       1  UNL1        0.0274
     82 H          13.6383   11.1550    0.0000 H       1  UNL1        0.0274
     83 H          14.8144    9.1181    0.0000 H       1  UNL1        0.0274
     84 H          15.6613    9.3450    0.0000 H       1  UNL1        0.0274
     85 H          15.4344   10.1919    0.0000 H       1  UNL1        0.0274
     86 H          12.1972    5.3450    0.0000 H       1  UNL1        0.0618
     87 H          10.2573    5.4650    0.0000 H       1  UNL1        0.0620
     88 H           7.6592    0.9650    0.0000 H       1  UNL1        0.0620
     89 H           9.3913    3.9650    0.0000 H       1  UNL1        0.0620
     90 H          11.3503    3.1181    0.0000 H       1  UNL1        0.0278
     91 H          12.1972    3.3450    0.0000 H       1  UNL1        0.0278
     92 H          11.9703    4.1919    0.0000 H       1  UNL1        0.0278
     93 H           8.5252    2.4650    0.0000 H       1  UNL1        0.0620
     94 H          10.4651    2.3450    0.0000 H       1  UNL1        0.0618
     95 H           9.6182    0.1181    0.0000 H       1  UNL1        0.0278
     96 H          10.4651    0.3450    0.0000 H       1  UNL1        0.0278
     97 H          10.2382    1.1919    0.0000 H       1  UNL1        0.0278
@<TRIPOS>BOND
     1     4     1    1
     2     1    57    1
     3     2     3    1
     4     2     5    1
     5     2     8    1
     6     2     9    1
     7     3     4    1
     8     3    42    1
     9     3    43    1
    10     4     6    1
    11     4    44    1
    12     5     7    2
    13     5    10    1
    14     6     7    1
    15     6    45    1
    16     6    46    1
    17     7    11    1
    18     8    47    1
    19     8    48    1
    20     8    49    1
    21     9    50    1
    22     9    51    1
    23     9    52    1
    24    10    12    2
    25    10    53    1
    26    11    54    1
    27    11    55    1
    28    11    56    1
    29    12    13    1
    30    12    58    1
    31    13    14    1
    32    13    15    2
    33    14    59    1
    34    14    60    1
    35    14    61    1
    36    15    16    1
    37    15    62    1
    38    16    17    2
    39    16    63    1
    40    17    18    1
    41    17    64    1
    42    18    19    1
    43    18    20    2
    44    19    65    1
    45    19    66    1
    46    19    67    1
    47    20    24    1
    48    20    68    1
    49    21    22    1
    50    21    23    1
    51    21    69    1
    52    21    70    1
    53    22    25    1
    54    22    71    1
    55    22    72    1
    56    23    27    1
    57    23    28    2
    58    24    29    2
    59    24    73    1
    60    25    26    2
    61    25    74    1
    62    26    30    1
    63    26    31    1
    64    27    75    1
    65    27    76    1
    66    27    77    1
    67    28    32    1
    68    28    78    1
    69    29    34    1
    70    29    79    1
    71    30    80    1
    72    30    81    1
    73    30    82    1
    74    31    83    1
    75    31    84    1
    76    31    85    1
    77    32    33    2
    78    32    86    1
    79    33    35    1
    80    33    87    1
    81    34    36    2
    82    34    88    1
    83    35    37    2
    84    35    38    1
    85    36    39    1
    86    36    41    1
    87    37    40    1
    88    37    89    1
    89    38    90    1
    90    38    91    1
    91    38    92    1
    92    39    40    2
    93    39    93    1
    94    40    94    1
    95    41    95    1
    96    41    96    1
    97    41    97    1
