@<TRIPOS>MOLECULE
IMPHY007586
 48 48 0 0 0
SMALL
GASTEIGER

@<TRIPOS>ATOM
      1 S           6.0010   -1.0950    0.0000 S.3     1  UNL1       -0.0728
      2 S           3.4030    3.4050    0.0000 S.O     1  UNL1        0.0190
      3 S           7.7331    1.9050    0.0000 S.3     1  UNL1        0.0672
      4 O           4.2690   -1.0950    0.0000 O.3     1  UNL1       -0.3549
      5 O           4.2690   -4.0950    0.0000 O.3     1  UNL1       -0.3865
      6 O           2.5369   -3.0950    0.0000 O.3     1  UNL1       -0.3865
      7 O           6.0010   -3.0950    0.0000 O.3     1  UNL1       -0.3857
      8 O           2.5369   -0.0950    0.0000 O.3     1  UNL1       -0.3924
      9 O           6.8671    1.4050    0.0000 O.2     1  UNL1       -0.2480
     10 O           2.5369    2.9050    0.0000 O.2     1  UNL1       -0.2575
     11 O           8.5991    2.4050    0.0000 O.co2   1  UNL1       -0.2572
     12 O           7.2331    2.7710    0.0000 O.2     1  UNL1       -0.3344
     13 O           8.2331    1.0390    0.0000 O.2     1  UNL1       -0.3344
     14 N           6.8671    0.4050    0.0000 N.2     1  UNL1       -0.0521
     15 C           4.2690   -3.0950    0.0000 C.3     1  UNL1        0.1126
     16 C           3.4030   -2.5950    0.0000 C.3     1  UNL1        0.1118
     17 C           5.1350   -2.5950    0.0000 C.3     1  UNL1        0.1192
     18 C           3.4030   -1.5950    0.0000 C.3     1  UNL1        0.1115
     19 C           5.1350   -1.5950    0.0000 C.3     1  UNL1        0.1384
     20 C           2.5369   -1.0950    0.0000 C.3     1  UNL1        0.0730
     21 C           6.0010   -0.0950    0.0000 C.2     1  UNL1        0.1180
     22 C           5.1350    0.4050    0.0000 C.3     1  UNL1       -0.0009
     23 C           5.1350    1.4050    0.0000 C.3     1  UNL1       -0.0462
     24 C           4.2690    1.9050    0.0000 C.3     1  UNL1       -0.0413
     25 C           4.2690    2.9050    0.0000 C.3     1  UNL1        0.0231
     26 C           3.4030    4.4050    0.0000 C.3     1  UNL1        0.0117
     27 H           4.8059   -3.4050    0.0000 H       1  UNL1        0.0647
     28 H           3.4030   -3.2150    0.0000 H       1  UNL1        0.0647
     29 H           5.6720   -2.2850    0.0000 H       1  UNL1        0.0655
     30 H           3.4030   -0.9750    0.0000 H       1  UNL1        0.0646
     31 H           5.1350   -0.9750    0.0000 H       1  UNL1        0.0743
     32 H           1.9264   -0.9873    0.0000 H       1  UNL1        0.0584
     33 H           2.3249   -1.6776    0.0000 H       1  UNL1        0.0584
     34 H           3.7320   -4.4050    0.0000 H       1  UNL1        0.2100
     35 H           2.0000   -2.7850    0.0000 H       1  UNL1        0.2100
     36 H           6.5380   -2.7850    0.0000 H       1  UNL1        0.2100
     37 H           4.5244    0.5127    0.0000 H       1  UNL1        0.0334
     38 H           4.9230   -0.1776    0.0000 H       1  UNL1        0.0334
     39 H           5.7456    1.2973    0.0000 H       1  UNL1        0.0269
     40 H           5.3471    1.9876    0.0000 H       1  UNL1        0.0269
     41 H           3.6584    2.0127    0.0000 H       1  UNL1        0.0274
     42 H           4.0569    1.3224    0.0000 H       1  UNL1        0.0274
     43 H           2.0000    0.2150    0.0000 H       1  UNL1        0.2095
     44 H           4.8796    2.7973    0.0000 H       1  UNL1        0.0401
     45 H           4.4810    3.4876    0.0000 H       1  UNL1        0.0401
     46 H           4.0230    4.4050    0.0000 H       1  UNL1        0.0365
     47 H           3.4030    5.0250    0.0000 H       1  UNL1        0.0365
     48 H           2.7830    4.4050    0.0000 H       1  UNL1        0.0365
@<TRIPOS>UNITY_ATOM_ATTR
11 1
charge -1
@<TRIPOS>BOND
     1    19     1    1
     2     1    21    1
     3     2    10    2
     4     2    25    1
     5     2    26    1
     6     3     9    1
     7     3    11    1
     8     3    12    2
     9     3    13    2
    10     4    18    1
    11     4    19    1
    12    15     5    1
    13     5    34    1
    14    16     6    1
    15     6    35    1
    16    17     7    1
    17     7    36    1
    18     8    20    1
    19     8    43    1
    20     9    14    1
    21    14    21    2
    22    15    16    1
    23    15    17    1
    24    15    27    1
    25    16    18    1
    26    16    28    1
    27    17    19    1
    28    17    29    1
    29    18    20    1
    30    18    30    1
    31    19    31    1
    32    20    32    1
    33    20    33    1
    34    21    22    1
    35    22    23    1
    36    22    37    1
    37    22    38    1
    38    23    24    1
    39    23    39    1
    40    23    40    1
    41    24    25    1
    42    24    41    1
    43    24    42    1
    44    25    44    1
    45    25    45    1
    46    26    46    1
    47    26    47    1
    48    26    48    1
