@<TRIPOS>MOLECULE
IMPHY004423
 43 45 0 0 0
SMALL
GASTEIGER

@<TRIPOS>ATOM
      1 O           3.9061    1.0000    0.0000 O.3     1  UNL1       -0.4808
      2 O           7.4420    0.9722    0.0000 O.2     1  UNL1       -0.4216
      3 O           5.6660   -2.0346    0.0000 O.3     1  UNL1       -0.5056
      4 O           8.3180    2.5105    0.0000 O.2     1  UNL1       -0.2452
      5 C           7.3981   -1.0346    0.0000 C.3     1  UNL1        0.0148
      6 C           6.5320   -0.5346    0.0000 C.ar    1  UNL1        0.0471
      7 C           3.0000    0.4862    0.0000 C.3     1  UNL1        0.1235
      8 C           4.8000   -0.5346    0.0000 C.ar    1  UNL1        0.0590
      9 C           4.8000    0.4654    0.0000 C.ar    1  UNL1        0.1430
     10 C           6.5320    0.4654    0.0000 C.ar    1  UNL1        0.1500
     11 C           5.6660   -1.0346    0.0000 C.ar    1  UNL1        0.1350
     12 C           5.6660    0.9654    0.0000 C.ar    1  UNL1        0.0604
     13 C           6.8981   -1.9007    0.0000 C.3     1  UNL1       -0.0521
     14 C           7.8981   -0.1686    0.0000 C.3     1  UNL1       -0.0521
     15 C           3.0000   -0.5554    0.0000 C.2     1  UNL1       -0.0408
     16 C           3.9061   -1.0693    0.0000 C.2     1  UNL1       -0.0478
     17 C           8.2641   -1.5346    0.0000 C.2     1  UNL1       -0.0809
     18 C           2.0000    0.4900    0.0000 C.3     1  UNL1       -0.0215
     19 C           2.5033    1.3541    0.0000 C.3     1  UNL1       -0.0215
     20 C           5.6500    2.0069    0.0000 C.ar    1  UNL1       -0.0408
     21 C           6.5480    2.5346    0.0000 C.ar    1  UNL1        0.0237
     22 C           7.4501    2.0138    0.0000 C.ar    1  UNL1        0.3372
     23 C           8.2641   -2.5346    0.0000 C.2     1  UNL1       -0.1018
     24 H           8.4350   -0.4786    0.0000 H       1  UNL1        0.0241
     25 H           8.2081    0.3683    0.0000 H       1  UNL1        0.0241
     26 H           7.3611    0.1414    0.0000 H       1  UNL1        0.0241
     27 H           6.3611   -1.5907    0.0000 H       1  UNL1        0.0241
     28 H           6.5881   -2.4376    0.0000 H       1  UNL1        0.0241
     29 H           7.4350   -2.2107    0.0000 H       1  UNL1        0.0241
     30 H           2.4643   -0.8675    0.0000 H       1  UNL1        0.0611
     31 H           3.9132   -1.6892    0.0000 H       1  UNL1        0.0624
     32 H           8.8010   -1.2246    0.0000 H       1  UNL1        0.0575
     33 H           2.0024    1.1100    0.0000 H       1  UNL1        0.0271
     34 H           3.0415    1.6621    0.0000 H       1  UNL1        0.0271
     35 H           2.1954    1.8923    0.0000 H       1  UNL1        0.0271
     36 H           1.9652    1.0462    0.0000 H       1  UNL1        0.0271
     37 H           1.3800    0.4924    0.0000 H       1  UNL1        0.0271
     38 H           1.9976   -0.1300    0.0000 H       1  UNL1        0.0271
     39 H           5.1095    2.3106    0.0000 H       1  UNL1        0.0628
     40 H           6.5456    3.1546    0.0000 H       1  UNL1        0.0689
     41 H           5.1291   -2.3446    0.0000 H       1  UNL1        0.2922
     42 H           7.7272   -2.8446    0.0000 H       1  UNL1        0.0532
     43 H           8.8010   -2.8446    0.0000 H       1  UNL1        0.0532
@<TRIPOS>BOND
     1     1     7    1
     2     1     9    1
     3     2    10   ar
     4     2    22   ar
     5     3    11    1
     6     3    41    1
     7     4    22    2
     8     5     6    1
     9     5    13    1
    10     5    14    1
    11     5    17    1
    12     6    10   ar
    13     6    11   ar
    14     7    15    1
    15     7    18    1
    16     7    19    1
    17     8     9   ar
    18     8    11   ar
    19     8    16    1
    20     9    12   ar
    21    10    12   ar
    22    12    20   ar
    23    13    27    1
    24    13    28    1
    25    13    29    1
    26    14    24    1
    27    14    25    1
    28    14    26    1
    29    15    16    2
    30    15    30    1
    31    16    31    1
    32    17    23    2
    33    17    32    1
    34    18    33    1
    35    18    37    1
    36    18    38    1
    37    19    34    1
    38    19    35    1
    39    19    36    1
    40    20    21   ar
    41    20    39    1
    42    21    22   ar
    43    21    40    1
    44    23    42    1
    45    23    43    1
