@<TRIPOS>MOLECULE
IMPHY015926
 34 33 0 0 0
SMALL
GASTEIGER

@<TRIPOS>ATOM
      1 O           3.7320   -1.0670    0.0000 O.3     1  UNL1       -0.4579
      2 O           2.8660    0.4330    0.0000 O.2     1  UNL1       -0.2511
      3 C           4.5981   -0.5670    0.0000 C.3     1  UNL1        0.1175
      4 C           5.4641   -0.0670    0.0000 C.3     1  UNL1        0.0346
      5 C           4.0981    0.2990    0.0000 C.3     1  UNL1       -0.0242
      6 C           5.0981   -1.4330    0.0000 C.3     1  UNL1       -0.0242
      7 C           6.3301   -0.5670    0.0000 C.2     1  UNL1       -0.0748
      8 C           5.4641    0.9330    0.0000 C.2     1  UNL1       -0.0806
      9 C           7.1962   -0.0670    0.0000 C.2     1  UNL1       -0.0789
     10 C           2.8660   -0.5670    0.0000 C.2     1  UNL1        0.3045
     11 C           8.0622   -0.5670    0.0000 C.3     1  UNL1       -0.0440
     12 C           7.1962    0.9330    0.0000 C.3     1  UNL1       -0.0440
     13 C           6.3301    1.4330    0.0000 C.2     1  UNL1       -0.1019
     14 C           2.0000   -1.0670    0.0000 C.3     1  UNL1        0.0333
     15 H           6.0010    0.2430    0.0000 H       1  UNL1        0.0424
     16 H           4.6350    0.6090    0.0000 H       1  UNL1        0.0268
     17 H           3.7881    0.8360    0.0000 H       1  UNL1        0.0268
     18 H           3.5611   -0.0110    0.0000 H       1  UNL1        0.0268
     19 H           4.5611   -1.7430    0.0000 H       1  UNL1        0.0268
     20 H           5.4081   -1.9700    0.0000 H       1  UNL1        0.0268
     21 H           5.6350   -1.1230    0.0000 H       1  UNL1        0.0268
     22 H           6.3301   -1.1870    0.0000 H       1  UNL1        0.0579
     23 H           4.9272    1.2430    0.0000 H       1  UNL1        0.0573
     24 H           7.7522   -1.1039    0.0000 H       1  UNL1        0.0274
     25 H           8.5991   -0.8770    0.0000 H       1  UNL1        0.0274
     26 H           8.3722   -0.0301    0.0000 H       1  UNL1        0.0274
     27 H           7.8162    0.9330    0.0000 H       1  UNL1        0.0274
     28 H           7.1962    1.5530    0.0000 H       1  UNL1        0.0274
     29 H           6.5762    0.9330    0.0000 H       1  UNL1        0.0274
     30 H           6.8671    1.1230    0.0000 H       1  UNL1        0.0532
     31 H           6.3301    2.0530    0.0000 H       1  UNL1        0.0532
     32 H           1.6900   -0.5301    0.0000 H       1  UNL1        0.0342
     33 H           1.4631   -1.3770    0.0000 H       1  UNL1        0.0342
     34 H           2.3100   -1.6039    0.0000 H       1  UNL1        0.0342
@<TRIPOS>BOND
     1     1     3    1
     2     1    10    1
     3     2    10    2
     4     3     4    1
     5     3     5    1
     6     3     6    1
     7     4     7    1
     8     4     8    1
     9     4    15    1
    10     5    16    1
    11     5    17    1
    12     5    18    1
    13     6    19    1
    14     6    20    1
    15     6    21    1
    16     7     9    2
    17     7    22    1
    18     8    13    2
    19     8    23    1
    20     9    11    1
    21     9    12    1
    22    10    14    1
    23    11    24    1
    24    11    25    1
    25    11    26    1
    26    12    27    1
    27    12    28    1
    28    12    29    1
    29    13    30    1
    30    13    31    1
    31    14    32    1
    32    14    33    1
    33    14    34    1
