@<TRIPOS>MOLECULE
IMPHY013083
 84 88 0 0 0
SMALL
GASTEIGER

@<TRIPOS>ATOM
      1 O           6.1847   -2.9697    0.0000 O.3     1  UNL1       -0.3910
      2 O           3.7035   -2.7672    0.0000 O.3     1  UNL1       -0.3885
      3 O          11.5367    3.2439    0.0000 O.3     1  UNL1       -0.3908
      4 O           2.5357   -1.9528    0.0000 O.3     1  UNL1       -0.3887
      5 O           4.9217   -3.3859    0.0000 O.3     1  UNL1       -0.3943
      6 O          12.1693    0.7838    0.0000 O.2     1  UNL1       -0.3004
      7 C           7.9288    0.0995    0.0000 C.3     1  UNL1       -0.0193
      8 C           7.9288    1.0995    0.0000 C.3     1  UNL1       -0.0257
      9 C           7.0628   -0.4005    0.0000 C.3     1  UNL1       -0.0028
     10 C           8.8228    1.6342    0.0000 C.3     1  UNL1       -0.0246
     11 C           9.7288    1.1204    0.0000 C.3     1  UNL1       -0.0211
     12 C           6.1968    0.0995    0.0000 C.2     1  UNL1       -0.0631
     13 C           8.8228   -0.4351    0.0000 C.3     1  UNL1       -0.0463
     14 C           5.2868   -0.4073    0.0000 C.3     1  UNL1       -0.0062
     15 C           5.2787   -1.4489    0.0000 C.3     1  UNL1        0.0545
     16 C           7.0789   -1.4420    0.0000 C.3     1  UNL1       -0.0165
     17 C           9.7288    0.0787    0.0000 C.3     1  UNL1       -0.0482
     18 C           7.0628    1.5995    0.0000 C.3     1  UNL1       -0.0306
     19 C          10.6726    1.6556    0.0000 C.3     1  UNL1        0.0523
     20 C           6.1808   -1.9697    0.0000 C.3     1  UNL1        0.0667
     21 C           8.7977    2.7189    0.0000 C.3     1  UNL1       -0.0447
     22 C           8.2709   -0.8401    0.0000 C.3     1  UNL1       -0.0585
     23 C           6.1968    1.0995    0.0000 C.2     1  UNL1       -0.0836
     24 C           4.3599    0.1568    0.0000 C.3     1  UNL1       -0.0381
     25 C           4.3433   -1.9986    0.0000 C.3     1  UNL1        0.0921
     26 C           7.7056   -1.1665    0.0000 C.3     1  UNL1       -0.0552
     27 C           7.9529    2.1275    0.0000 C.3     1  UNL1       -0.0590
     28 C          10.6726    2.7406    0.0000 C.3     1  UNL1        0.0673
     29 C           3.4120   -0.3712    0.0000 C.3     1  UNL1       -0.0059
     30 C           9.7288    3.2758    0.0000 C.3     1  UNL1       -0.0254
     31 C           3.4037   -1.4561    0.0000 C.3     1  UNL1        0.0869
     32 C           5.2710   -2.4489    0.0000 C.3     1  UNL1        0.0552
     33 C          11.1693    0.7876    0.0000 C.3     1  UNL1       -0.0504
     34 C          11.6726    1.6517    0.0000 C.2     1  UNL1        0.1289
     35 C           2.4121   -0.3596    0.0000 C.3     1  UNL1       -0.0574
     36 C           2.9221    0.5006    0.0000 C.3     1  UNL1       -0.0574
     37 H           8.4681    0.7937    0.0000 H       1  UNL1        0.0315
     38 H          10.2646    0.8083    0.0000 H       1  UNL1        0.0316
     39 H           8.4182   -0.9049    0.0000 H       1  UNL1        0.0271
     40 H           9.2164   -0.9141    0.0000 H       1  UNL1        0.0271
     41 H           5.2987    0.2126    0.0000 H       1  UNL1        0.0354
     42 H           7.2969   -2.0224    0.0000 H       1  UNL1        0.0299
     43 H           7.6880   -1.3265    0.0000 H       1  UNL1        0.0299
     44 H           9.9379   -0.5050    0.0000 H       1  UNL1        0.0269
     45 H          10.3397    0.1848    0.0000 H       1  UNL1        0.0269
     46 H           7.4613    2.0745    0.0000 H       1  UNL1        0.0310
     47 H           6.6643    2.0745    0.0000 H       1  UNL1        0.0310
     48 H           6.7195   -2.2766    0.0000 H       1  UNL1        0.0601
     49 H           8.5752    3.2976    0.0000 H       1  UNL1        0.0271
     50 H           8.1894    2.5987    0.0000 H       1  UNL1        0.0271
     51 H           7.6884   -1.0522    0.0000 H       1  UNL1        0.0235
     52 H           8.4830   -1.4227    0.0000 H       1  UNL1        0.0235
     53 H           8.8535   -0.6280    0.0000 H       1  UNL1        0.0235
     54 H           5.6598    1.4095    0.0000 H       1  UNL1        0.0572
     55 H           4.7681    0.6234    0.0000 H       1  UNL1        0.0277
     56 H           3.9700    0.6388    0.0000 H       1  UNL1        0.0277
     57 H           4.7446   -2.4713    0.0000 H       1  UNL1        0.0626
     58 H           7.2306   -1.5650    0.0000 H       1  UNL1        0.0238
     59 H           8.1041   -1.6415    0.0000 H       1  UNL1        0.0238
     60 H           8.1805   -0.7680    0.0000 H       1  UNL1        0.0238
     61 H           8.2588    2.6668    0.0000 H       1  UNL1        0.0235
     62 H           7.4136    2.4334    0.0000 H       1  UNL1        0.0235
     63 H           7.6471    1.5882    0.0000 H       1  UNL1        0.0235
     64 H          11.2101    2.4316    0.0000 H       1  UNL1        0.0603
     65 H          10.1225    3.7548    0.0000 H       1  UNL1        0.0290
     66 H           9.3242    3.7456    0.0000 H       1  UNL1        0.0290
     67 H           3.4025   -2.0761    0.0000 H       1  UNL1        0.0625
     68 H           5.7187   -2.8778    0.0000 H       1  UNL1        0.0564
     69 H           4.6613   -2.3365    0.0000 H       1  UNL1        0.0564
     70 H          10.6311    0.4797    0.0000 H       1  UNL1        0.0240
     71 H          11.4772    0.2495    0.0000 H       1  UNL1        0.0240
     72 H          11.7074    1.0956    0.0000 H       1  UNL1        0.0240
     73 H          11.9847    2.1875    0.0000 H       1  UNL1        0.1033
     74 H           6.7228   -3.2776    0.0000 H       1  UNL1        0.2098
     75 H           2.4193    0.2603    0.0000 H       1  UNL1        0.0236
     76 H           1.7922   -0.3524    0.0000 H       1  UNL1        0.0236
     77 H           2.4049   -0.9796    0.0000 H       1  UNL1        0.0236
     78 H           3.4626    0.8043    0.0000 H       1  UNL1        0.0236
     79 H           2.6183    1.0411    0.0000 H       1  UNL1        0.0236
     80 H           2.3816    0.1968    0.0000 H       1  UNL1        0.0236
     81 H           3.0925   -2.6619    0.0000 H       1  UNL1        0.2099
     82 H          11.5343    3.8639    0.0000 H       1  UNL1        0.2098
     83 H           2.0000   -1.6407    0.0000 H       1  UNL1        0.2099
     84 H           5.3166   -3.8639    0.0000 H       1  UNL1        0.2094
@<TRIPOS>BOND
     1     1    20    1
     2     1    74    1
     3     2    25    1
     4     2    81    1
     5     3    28    1
     6     3    82    1
     7     4    31    1
     8     4    83    1
     9     5    32    1
    10     5    84    1
    11     6    34    2
    12     7     8    1
    13     7     9    1
    14     7    13    1
    15     7    22    1
    16     8    10    1
    17     8    18    1
    18     8    37    1
    19     9    12    1
    20     9    16    1
    21     9    26    1
    22    10    11    1
    23    10    21    1
    24    10    27    1
    25    11    17    1
    26    11    19    1
    27    11    38    1
    28    12    14    1
    29    12    23    2
    30    13    17    1
    31    13    39    1
    32    13    40    1
    33    14    15    1
    34    14    24    1
    35    14    41    1
    36    15    20    1
    37    15    25    1
    38    15    32    1
    39    16    20    1
    40    16    42    1
    41    16    43    1
    42    17    44    1
    43    17    45    1
    44    18    23    1
    45    18    46    1
    46    18    47    1
    47    19    28    1
    48    19    33    1
    49    19    34    1
    50    20    48    1
    51    21    30    1
    52    21    49    1
    53    21    50    1
    54    22    51    1
    55    22    52    1
    56    22    53    1
    57    23    54    1
    58    24    29    1
    59    24    55    1
    60    24    56    1
    61    25    31    1
    62    25    57    1
    63    26    58    1
    64    26    59    1
    65    26    60    1
    66    27    61    1
    67    27    62    1
    68    27    63    1
    69    28    30    1
    70    28    64    1
    71    29    31    1
    72    29    35    1
    73    29    36    1
    74    30    65    1
    75    30    66    1
    76    31    67    1
    77    32    68    1
    78    32    69    1
    79    33    70    1
    80    33    71    1
    81    33    72    1
    82    34    73    1
    83    35    75    1
    84    35    76    1
    85    35    77    1
    86    36    78    1
    87    36    79    1
    88    36    80    1
