@<TRIPOS>MOLECULE
IMPHY010082
 20 21 0 0 0
SMALL
GASTEIGER

@<TRIPOS>ATOM
      1 N           4.6783   -1.1916    0.0000 N.ar    1  UNL1       -0.3603
      2 N           6.9459    1.7809    0.0000 N.1     1  UNL1       -0.1962
      3 C           3.7320    0.1132    0.0000 C.ar    1  UNL1        0.0038
      4 C           4.6783    0.4179    0.0000 C.ar    1  UNL1       -0.0086
      5 C           3.7320   -0.8868    0.0000 C.ar    1  UNL1        0.0468
      6 C           5.2619   -0.3868    0.0000 C.ar    1  UNL1        0.0069
      7 C           2.8660    0.6132    0.0000 C.ar    1  UNL1       -0.0523
      8 C           4.9889    1.3684    0.0000 C.3     1  UNL1        0.0618
      9 C           2.8660   -1.3868    0.0000 C.ar    1  UNL1       -0.0378
     10 C           2.0000    0.1132    0.0000 C.ar    1  UNL1       -0.0611
     11 C           2.0000   -0.8868    0.0000 C.ar    1  UNL1       -0.0598
     12 C           5.9674    1.5747    0.0000 C.1     1  UNL1        0.0673
     13 H           5.8819   -0.3868    0.0000 H       1  UNL1        0.0810
     14 H           4.8709   -1.7809    0.0000 H       1  UNL1        0.1653
     15 H           2.8660    1.2332    0.0000 H       1  UNL1        0.0624
     16 H           4.9684    1.9881    0.0000 H       1  UNL1        0.0467
     17 H           4.3751    1.4558    0.0000 H       1  UNL1        0.0467
     18 H           2.8660   -2.0068    0.0000 H       1  UNL1        0.0638
     19 H           1.4631    0.4232    0.0000 H       1  UNL1        0.0618
     20 H           1.4631   -1.1968    0.0000 H       1  UNL1        0.0618
@<TRIPOS>BOND
     1     1     5   ar
     2     1     6   ar
     3     1    14    1
     4     2    12    3
     5     3     4   ar
     6     3     5   ar
     7     3     7   ar
     8     4     6   ar
     9     4     8    1
    10     5     9   ar
    11     6    13    1
    12     7    10   ar
    13     7    15    1
    14     8    12    1
    15     8    16    1
    16     8    17    1
    17     9    11   ar
    18     9    18    1
    19    10    11   ar
    20    10    19    1
    21    11    20    1
