@<TRIPOS>MOLECULE
IMPHY003345
 57 58 0 0 0
SMALL
GASTEIGER

@<TRIPOS>ATOM
      1 O          12.3923   -0.7073    0.0000 O.3     1  UNL1       -0.4878
      2 O          15.8843   -0.7420    0.0000 O.2     1  UNL1       -0.4220
      3 O          17.6545   -0.7315    0.0000 O.2     1  UNL1       -0.2452
      4 C           8.0622   -0.2073    0.0000 C.3     1  UNL1       -0.0308
      5 C           8.9282   -0.7073    0.0000 C.3     1  UNL1       -0.0285
      6 C           5.4641   -0.7073    0.0000 C.3     1  UNL1       -0.0286
      7 C           6.3301   -0.2073    0.0000 C.2     1  UNL1       -0.0762
      8 C           7.1962   -0.7073    0.0000 C.2     1  UNL1       -0.0847
      9 C           4.5981   -0.2073    0.0000 C.3     1  UNL1       -0.0308
     10 C           9.7942   -0.2073    0.0000 C.2     1  UNL1       -0.0731
     11 C           6.3301    0.7927    0.0000 C.3     1  UNL1       -0.0438
     12 C           3.7320   -0.7073    0.0000 C.2     1  UNL1       -0.0850
     13 C          10.6603   -0.7073    0.0000 C.2     1  UNL1       -0.0481
     14 C           9.7942    0.7927    0.0000 C.3     1  UNL1       -0.0437
     15 C          11.5263   -0.2073    0.0000 C.3     1  UNL1        0.1081
     16 C           2.8660   -0.2073    0.0000 C.2     1  UNL1       -0.0796
     17 C          13.2583   -0.2073    0.0000 C.ar    1  UNL1        0.1245
     18 C          14.9904    0.7927    0.0000 C.ar    1  UNL1        0.0178
     19 C           2.0000   -0.7073    0.0000 C.3     1  UNL1       -0.0440
     20 C           2.8660    0.7927    0.0000 C.3     1  UNL1       -0.0440
     21 C          14.9904   -0.2073    0.0000 C.ar    1  UNL1        0.1425
     22 C          14.1244   -0.7073    0.0000 C.ar    1  UNL1        0.0231
     23 C          13.2583    0.7927    0.0000 C.ar    1  UNL1       -0.0191
     24 C          14.1244    1.2927    0.0000 C.ar    1  UNL1       -0.0476
     25 C          15.8843    1.3273    0.0000 C.ar    1  UNL1       -0.0443
     26 C          16.7904    0.8135    0.0000 C.ar    1  UNL1        0.0236
     27 C          16.7904   -0.2281    0.0000 C.ar    1  UNL1        0.3372
     28 H           8.4607    0.2676    0.0000 H       1  UNL1        0.0310
     29 H           7.6636    0.2676    0.0000 H       1  UNL1        0.0310
     30 H           8.5297   -1.1823    0.0000 H       1  UNL1        0.0313
     31 H           9.3267   -1.1823    0.0000 H       1  UNL1        0.0313
     32 H           5.0656   -1.1823    0.0000 H       1  UNL1        0.0313
     33 H           5.8626   -1.1823    0.0000 H       1  UNL1        0.0313
     34 H           7.1962   -1.3273    0.0000 H       1  UNL1        0.0572
     35 H           4.9966    0.2676    0.0000 H       1  UNL1        0.0310
     36 H           4.1996    0.2676    0.0000 H       1  UNL1        0.0310
     37 H           6.9501    0.7927    0.0000 H       1  UNL1        0.0274
     38 H           6.3301    1.4127    0.0000 H       1  UNL1        0.0274
     39 H           5.7101    0.7927    0.0000 H       1  UNL1        0.0274
     40 H           3.7320   -1.3273    0.0000 H       1  UNL1        0.0572
     41 H          10.6603   -1.3273    0.0000 H       1  UNL1        0.0605
     42 H          10.4142    0.7927    0.0000 H       1  UNL1        0.0274
     43 H           9.7942    1.4127    0.0000 H       1  UNL1        0.0274
     44 H           9.1742    0.7927    0.0000 H       1  UNL1        0.0274
     45 H          11.9248    0.2676    0.0000 H       1  UNL1        0.0742
     46 H          11.1278    0.2676    0.0000 H       1  UNL1        0.0742
     47 H           1.6900   -0.1704    0.0000 H       1  UNL1        0.0274
     48 H           1.4631   -1.0173    0.0000 H       1  UNL1        0.0274
     49 H           2.3100   -1.2443    0.0000 H       1  UNL1        0.0274
     50 H           3.4860    0.7927    0.0000 H       1  UNL1        0.0274
     51 H           2.8660    1.4127    0.0000 H       1  UNL1        0.0274
     52 H           2.2460    0.7927    0.0000 H       1  UNL1        0.0274
     53 H          14.1244   -1.3273    0.0000 H       1  UNL1        0.0691
     54 H          12.7214    1.1027    0.0000 H       1  UNL1        0.0654
     55 H          14.1244    1.9127    0.0000 H       1  UNL1        0.0626
     56 H          15.8772    1.9473    0.0000 H       1  UNL1        0.0627
     57 H          17.3261    1.1256    0.0000 H       1  UNL1        0.0689
@<TRIPOS>BOND
     1     1    15    1
     2     1    17    1
     3     2    21   ar
     4     2    27   ar
     5     3    27    2
     6     4     5    1
     7     4     8    1
     8     4    28    1
     9     4    29    1
    10     5    10    1
    11     5    30    1
    12     5    31    1
    13     6     7    1
    14     6     9    1
    15     6    32    1
    16     6    33    1
    17     7     8    2
    18     7    11    1
    19     8    34    1
    20     9    12    1
    21     9    35    1
    22     9    36    1
    23    10    13    2
    24    10    14    1
    25    11    37    1
    26    11    38    1
    27    11    39    1
    28    12    16    2
    29    12    40    1
    30    13    15    1
    31    13    41    1
    32    14    42    1
    33    14    43    1
    34    14    44    1
    35    15    45    1
    36    15    46    1
    37    16    19    1
    38    16    20    1
    39    17    22   ar
    40    17    23   ar
    41    18    21   ar
    42    18    24   ar
    43    18    25   ar
    44    19    47    1
    45    19    48    1
    46    19    49    1
    47    20    50    1
    48    20    51    1
    49    20    52    1
    50    21    22   ar
    51    22    53    1
    52    23    24   ar
    53    23    54    1
    54    24    55    1
    55    25    26   ar
    56    25    56    1
    57    26    27   ar
    58    26    57    1
