@<TRIPOS>MOLECULE
IMPHY004642
 32 33 0 0 0
SMALL
GASTEIGER

@<TRIPOS>ATOM
      1 O           2.5369   -0.9050    0.0000 O.3     1  UNL1       -0.5058
      2 O           6.0010   -0.9050    0.0000 O.3     1  UNL1       -0.5058
      3 O           4.2690   -3.9050    0.0000 O.3     1  UNL1       -0.5065
      4 O           3.4030    0.5950    0.0000 O.2     1  UNL1       -0.2870
      5 O           8.5991    3.5950    0.0000 O.3     1  UNL1       -0.5068
      6 C           4.2690   -0.9050    0.0000 C.ar    1  UNL1        0.1045
      7 C           3.4030   -1.4050    0.0000 C.ar    1  UNL1        0.1346
      8 C           5.1350   -1.4050    0.0000 C.ar    1  UNL1        0.1346
      9 C           4.2690    0.0950    0.0000 C.2     1  UNL1        0.1931
     10 C           6.0010    2.0950    0.0000 C.ar    1  UNL1       -0.0247
     11 C           3.4030   -2.4050    0.0000 C.ar    1  UNL1        0.0223
     12 C           5.1350   -2.4050    0.0000 C.ar    1  UNL1        0.0223
     13 C           4.2690   -2.9050    0.0000 C.ar    1  UNL1        0.1238
     14 C           5.1350    0.5950    0.0000 C.2     1  UNL1       -0.0135
     15 C           5.1350    1.5950    0.0000 C.2     1  UNL1       -0.0510
     16 C           6.8671    1.5950    0.0000 C.ar    1  UNL1       -0.0511
     17 C           6.0010    3.0950    0.0000 C.ar    1  UNL1       -0.0511
     18 C           7.7331    2.0950    0.0000 C.ar    1  UNL1       -0.0196
     19 C           6.8671    3.5950    0.0000 C.ar    1  UNL1       -0.0196
     20 C           7.7331    3.0950    0.0000 C.ar    1  UNL1        0.1169
     21 H           2.8660   -2.7150    0.0000 H       1  UNL1        0.0691
     22 H           5.6720   -2.7150    0.0000 H       1  UNL1        0.0691
     23 H           5.6720    0.2850    0.0000 H       1  UNL1        0.0656
     24 H           4.5981    1.9050    0.0000 H       1  UNL1        0.0625
     25 H           6.8671    0.9750    0.0000 H       1  UNL1        0.0625
     26 H           5.4641    3.4050    0.0000 H       1  UNL1        0.0625
     27 H           8.2700    1.7850    0.0000 H       1  UNL1        0.0654
     28 H           6.8671    4.2150    0.0000 H       1  UNL1        0.0654
     29 H           2.0000   -1.2150    0.0000 H       1  UNL1        0.2922
     30 H           6.5380   -1.2150    0.0000 H       1  UNL1        0.2922
     31 H           3.7320   -4.2150    0.0000 H       1  UNL1        0.2921
     32 H           8.5991    4.2150    0.0000 H       1  UNL1        0.2921
@<TRIPOS>BOND
     1     1     7    1
     2     1    29    1
     3     2     8    1
     4     2    30    1
     5     3    13    1
     6     3    31    1
     7     4     9    2
     8     5    20    1
     9     5    32    1
    10     6     7   ar
    11     6     8   ar
    12     6     9    1
    13     7    11   ar
    14     8    12   ar
    15     9    14    1
    16    10    15    1
    17    10    16   ar
    18    10    17   ar
    19    11    13   ar
    20    11    21    1
    21    12    13   ar
    22    12    22    1
    23    14    15    2
    24    14    23    1
    25    15    24    1
    26    16    18   ar
    27    16    25    1
    28    17    19   ar
    29    17    26    1
    30    18    20   ar
    31    18    27    1
    32    19    20   ar
    33    19    28    1
