@<TRIPOS>MOLECULE
IMPHY017809
 37 38 0 0 0
SMALL
GASTEIGER

@<TRIPOS>ATOM
      1 O           5.6783   -0.8717    0.0000 O.2     1  UNL1       -0.4888
      2 O           2.1340   -1.0670    0.0000 O.2     1  UNL1       -0.2953
      3 O           3.8660    1.9330    0.0000 O.2     1  UNL1       -0.2913
      4 C           3.8660   -1.0670    0.0000 C.3     1  UNL1        0.0817
      5 C           3.0000    0.4330    0.0000 C.3     1  UNL1        0.0866
      6 C           4.7320   -0.5670    0.0000 C.2     1  UNL1        0.1178
      7 C           6.2619   -0.0670    0.0000 C.3     1  UNL1        0.1088
      8 C           4.7320    0.4330    0.0000 C.2     1  UNL1        0.0381
      9 C           5.6783    0.7377    0.0000 C.3     1  UNL1        0.0183
     10 C           3.0000   -0.5670    0.0000 C.2     1  UNL1        0.1592
     11 C           3.8660    0.9330    0.0000 C.2     1  UNL1        0.1752
     12 C           3.3660   -1.9330    0.0000 C.3     1  UNL1       -0.0461
     13 C           4.3660   -1.9330    0.0000 C.3     1  UNL1       -0.0461
     14 C           2.5000    1.2990    0.0000 C.3     1  UNL1       -0.0459
     15 C           2.0000    0.4330    0.0000 C.3     1  UNL1       -0.0459
     16 C           7.0709    0.5208    0.0000 C.3     1  UNL1       -0.0249
     17 C           7.0709   -0.6548    0.0000 C.3     1  UNL1       -0.0249
     18 H           6.2156    1.0470    0.0000 H       1  UNL1        0.0354
     19 H           5.4272    1.3046    0.0000 H       1  UNL1        0.0354
     20 H           2.8291   -1.6230    0.0000 H       1  UNL1        0.0243
     21 H           3.0560   -2.4700    0.0000 H       1  UNL1        0.0243
     22 H           3.9030   -2.2430    0.0000 H       1  UNL1        0.0243
     23 H           3.8291   -2.2430    0.0000 H       1  UNL1        0.0243
     24 H           4.6760   -2.4700    0.0000 H       1  UNL1        0.0243
     25 H           4.9030   -1.6230    0.0000 H       1  UNL1        0.0243
     26 H           3.0369    1.6090    0.0000 H       1  UNL1        0.0243
     27 H           2.1900    1.8360    0.0000 H       1  UNL1        0.0243
     28 H           1.9631    0.9890    0.0000 H       1  UNL1        0.0243
     29 H           2.0000    1.0530    0.0000 H       1  UNL1        0.0243
     30 H           1.3800    0.4330    0.0000 H       1  UNL1        0.0243
     31 H           2.0000   -0.1870    0.0000 H       1  UNL1        0.0243
     32 H           7.4353    0.0192    0.0000 H       1  UNL1        0.0268
     33 H           7.5725    0.8852    0.0000 H       1  UNL1        0.0268
     34 H           6.7065    1.0224    0.0000 H       1  UNL1        0.0268
     35 H           6.7065   -1.1564    0.0000 H       1  UNL1        0.0268
     36 H           7.5725   -1.0192    0.0000 H       1  UNL1        0.0268
     37 H           7.4353   -0.1532    0.0000 H       1  UNL1        0.0268
@<TRIPOS>BOND
     1     1     6    1
     2     1     7    1
     3     2    10    2
     4     3    11    2
     5     4     6    1
     6     4    10    1
     7     4    12    1
     8     4    13    1
     9     5    10    1
    10     5    11    1
    11     5    14    1
    12     5    15    1
    13     6     8    2
    14     7     9    1
    15     7    16    1
    16     7    17    1
    17     8     9    1
    18     8    11    1
    19     9    18    1
    20     9    19    1
    21    12    20    1
    22    12    21    1
    23    12    22    1
    24    13    23    1
    25    13    24    1
    26    13    25    1
    27    14    26    1
    28    14    27    1
    29    14    28    1
    30    15    29    1
    31    15    30    1
    32    15    31    1
    33    16    32    1
    34    16    33    1
    35    16    34    1
    36    17    35    1
    37    17    36    1
    38    17    37    1
