@<TRIPOS>MOLECULE
IMPHY008911
 113 118 0 0 0
SMALL
GASTEIGER

@<TRIPOS>ATOM
      1 CL         18.9914   -1.6837    0.0000 Cl      1  UNL1        0.0000
      2 O          13.7953   -1.6837    0.0000 O.3     2  UNL2       -0.3313
      3 O          10.3312   -2.6837    0.0000 O.3     2  UNL2       -0.3420
      4 O          12.0632   -2.6837    0.0000 O.3     2  UNL2       -0.3460
      5 O          12.0632    0.3163    0.0000 O.3     2  UNL2       -0.3865
      6 O          15.5273   -1.6837    0.0000 O.3     2  UNL2       -0.4515
      7 O           8.5991   -4.6837    0.0000 O.3     2  UNL2       -0.4529
      8 O          13.7953    1.3163    0.0000 O.3     2  UNL2       -0.3864
      9 O          10.3312   -5.6837    0.0000 O.3     2  UNL2       -0.3853
     10 O          12.0632   -4.6837    0.0000 O.3     2  UNL2       -0.3841
     11 O          15.5273    0.3163    0.0000 O.3     2  UNL2       -0.3829
     12 O          17.2202    3.3577    0.0000 O.3     2  UNL2       -0.3313
     13 O          16.3716    1.8478    0.0000 O.3     2  UNL2       -0.4598
     14 O          14.6049    4.8275    0.0000 O.3     2  UNL2       -0.3864
     15 O          16.3253    5.8475    0.0000 O.3     2  UNL2       -0.3865
     16 O          14.6281    2.8277    0.0000 O.3     2  UNL2       -0.3829
     17 O          18.1254   -1.1837    0.0000 O.2     2  UNL2       -0.1997
     18 O          18.0572    5.8675    0.0000 O.3     2  UNL2       -0.3924
     19 O           7.7331   -3.1837    0.0000 O.2     2  UNL2       -0.2456
     20 O          19.9114    1.8614    0.0000 O.3     2  UNL2       -0.5063
     21 O          18.9914   -4.6837    0.0000 O.3     2  UNL2       -0.5032
     22 O          15.5273   -4.6837    0.0000 O.3     2  UNL2       -0.5032
     23 O          17.2594   -5.6837    0.0000 O.3     2  UNL2       -0.5009
     24 O           2.5369   -6.1837    0.0000 O.3     2  UNL2       -0.5068
     25 C          12.9292   -1.1837    0.0000 C.3     2  UNL2        0.1144
     26 C          12.9292   -0.1837    0.0000 C.3     2  UNL2        0.1120
     27 C          13.7953    0.3163    0.0000 C.3     2  UNL2        0.1152
     28 C          10.3312   -4.6837    0.0000 C.3     2  UNL2        0.1250
     29 C          11.1972   -4.1837    0.0000 C.3     2  UNL2        0.1352
     30 C           9.4651   -4.1837    0.0000 C.3     2  UNL2        0.1574
     31 C          11.1972   -3.1837    0.0000 C.3     2  UNL2        0.1880
     32 C          14.6613   -0.1837    0.0000 C.3     2  UNL2        0.1454
     33 C           9.4651   -3.1837    0.0000 C.3     2  UNL2        0.0984
     34 C          14.6613   -1.1837    0.0000 C.3     2  UNL2        0.2312
     35 C          12.0632   -1.6837    0.0000 C.3     2  UNL2        0.0796
     36 C          15.4767    4.3376    0.0000 C.3     2  UNL2        0.1152
     37 C          16.3369    4.8476    0.0000 C.3     2  UNL2        0.1120
     38 C          15.4882    3.3376    0.0000 C.3     2  UNL2        0.1454
     39 C           8.5991   -2.6837    0.0000 C.3     2  UNL2       -0.0350
     40 C          17.2086    4.3576    0.0000 C.3     2  UNL2        0.1140
     41 C          16.3600    2.8477    0.0000 C.3     2  UNL2        0.2308
     42 C          18.0688    4.8676    0.0000 C.3     2  UNL2        0.0731
     43 C          16.3933   -1.1837    0.0000 C.ar    2  UNL2        0.2288
     44 C          17.2594    0.3163    0.0000 C.ar    2  UNL2        0.1245
     45 C          17.2433    1.3578    0.0000 C.ar    2  UNL2        0.1437
     46 C          16.3933   -0.1837    0.0000 C.ar    2  UNL2        0.0093
     47 C           7.7331   -4.1837    0.0000 C.2     2  UNL2        0.3324
     48 C          17.2594   -1.6837    0.0000 C.ar    2  UNL2        0.4047
     49 C          18.1254   -0.1837    0.0000 C.ar    2  UNL2        0.3708
     50 C          18.1413    1.8856    0.0000 C.ar    2  UNL2        0.0229
     51 C          17.2594   -2.6837    0.0000 C.ar    2  UNL2        0.0899
     52 C          19.0354    0.3231    0.0000 C.ar    2  UNL2        0.0847
     53 C           6.8671   -4.6837    0.0000 C.2     2  UNL2        0.0231
     54 C          19.0434    1.3647    0.0000 C.ar    2  UNL2        0.1293
     55 C          16.3933   -3.1837    0.0000 C.ar    2  UNL2       -0.0000
     56 C          18.1254   -3.1837    0.0000 C.ar    2  UNL2       -0.0000
     57 C           6.0010   -4.1837    0.0000 C.2     2  UNL2       -0.0478
     58 C          18.1254   -4.1837    0.0000 C.ar    2  UNL2        0.1628
     59 C          16.3933   -4.1837    0.0000 C.ar    2  UNL2        0.1628
     60 C          17.2594   -4.6837    0.0000 C.ar    2  UNL2        0.2006
     61 C           5.1350   -4.6837    0.0000 C.ar    2  UNL2       -0.0246
     62 C           4.2690   -4.1837    0.0000 C.ar    2  UNL2       -0.0511
     63 C           5.1350   -5.6837    0.0000 C.ar    2  UNL2       -0.0511
     64 C           3.4030   -4.6837    0.0000 C.ar    2  UNL2       -0.0196
     65 C           4.2690   -6.1837    0.0000 C.ar    2  UNL2       -0.0196
     66 C           3.4030   -5.6837    0.0000 C.ar    2  UNL2        0.1169
     67 H          12.9292   -1.8037    0.0000 H       2  UNL2        0.0647
     68 H          12.3923   -0.4937    0.0000 H       2  UNL2        0.0647
     69 H          14.3322    0.6263    0.0000 H       2  UNL2        0.0648
     70 H           9.7942   -4.9937    0.0000 H       2  UNL2        0.0659
     71 H          11.7341   -3.8737    0.0000 H       2  UNL2        0.0671
     72 H           8.9282   -3.8737    0.0000 H       2  UNL2        0.0787
     73 H          11.1972   -2.5637    0.0000 H       2  UNL2        0.0937
     74 H          15.1982   -0.4937    0.0000 H       2  UNL2        0.0683
     75 H           9.4651   -2.5637    0.0000 H       2  UNL2        0.0632
     76 H          14.6613   -1.8037    0.0000 H       2  UNL2        0.1084
     77 H          11.8512   -1.1011    0.0000 H       2  UNL2        0.0587
     78 H          11.4526   -1.7914    0.0000 H       2  UNL2        0.0587
     79 H          14.9434    4.0214    0.0000 H       2  UNL2        0.0648
     80 H          16.8702    5.1637    0.0000 H       2  UNL2        0.0647
     81 H          15.4954    2.7177    0.0000 H       2  UNL2        0.0683
     82 H          17.7491    4.0538    0.0000 H       2  UNL2        0.0647
     83 H           8.9091   -2.1468    0.0000 H       2  UNL2        0.0256
     84 H           8.0622   -2.3737    0.0000 H       2  UNL2        0.0256
     85 H           8.2891   -3.2206    0.0000 H       2  UNL2        0.0256
     86 H          16.9005    2.5439    0.0000 H       2  UNL2        0.1084
     87 H          11.5263    0.0063    0.0000 H       2  UNL2        0.2100
     88 H          13.2583    1.6263    0.0000 H       2  UNL2        0.2100
     89 H          10.8681   -5.9937    0.0000 H       2  UNL2        0.2101
     90 H          12.6002   -4.3737    0.0000 H       2  UNL2        0.2101
     91 H          15.5273    0.9363    0.0000 H       2  UNL2        0.2102
     92 H          18.2876    4.2875    0.0000 H       2  UNL2        0.0584
     93 H          18.6781    4.9823    0.0000 H       2  UNL2        0.0584
     94 H          14.5978    5.4475    0.0000 H       2  UNL2        0.2100
     95 H          15.7848    6.1513    0.0000 H       2  UNL2        0.2100
     96 H          15.8564    0.1263    0.0000 H       2  UNL2        0.0667
     97 H          14.0876    3.1314    0.0000 H       2  UNL2        0.2102
     98 H          18.1390    2.5056    0.0000 H       2  UNL2        0.0691
     99 H          18.5906    6.1837    0.0000 H       2  UNL2        0.2095
    100 H          19.5687    0.0070    0.0000 H       2  UNL2        0.0749
    101 H           6.8671   -5.3037    0.0000 H       2  UNL2        0.0689
    102 H          15.8564   -2.8737    0.0000 H       2  UNL2        0.0664
    103 H          18.6623   -2.8737    0.0000 H       2  UNL2        0.0664
    104 H           6.0010   -3.5637    0.0000 H       2  UNL2        0.0626
    105 H          20.4471    1.5493    0.0000 H       2  UNL2        0.2921
    106 H           4.2690   -3.5637    0.0000 H       2  UNL2        0.0625
    107 H           5.6720   -5.9937    0.0000 H       2  UNL2        0.0625
    108 H          19.5284   -4.3737    0.0000 H       2  UNL2        0.2923
    109 H          15.5273   -5.3037    0.0000 H       2  UNL2        0.2923
    110 H          17.7963   -5.9937    0.0000 H       2  UNL2        0.2924
    111 H           2.8660   -4.3737    0.0000 H       2  UNL2        0.0654
    112 H           4.2690   -6.8037    0.0000 H       2  UNL2        0.0654
    113 H           2.0000   -5.8737    0.0000 H       2  UNL2        0.2921
@<TRIPOS>UNITY_ATOM_ATTR
1 1
charge -1
17 1
charge 1
@<TRIPOS>BOND
     1     2    25    1
     2     2    34    1
     3     3    31    1
     4     3    33    1
     5    31     4    1
     6     4    35    1
     7    26     5    1
     8     5    87    1
     9    34     6    1
    10     6    43    1
    11    30     7    1
    12     7    47    1
    13    27     8    1
    14     8    88    1
    15    28     9    1
    16     9    89    1
    17    29    10    1
    18    10    90    1
    19    32    11    1
    20    11    91    1
    21    12    40    1
    22    12    41    1
    23    41    13    1
    24    13    45    1
    25    36    14    1
    26    14    94    1
    27    37    15    1
    28    15    95    1
    29    38    16    1
    30    16    97    1
    31    17    48   ar
    32    17    49   ar
    33    18    42    1
    34    18    99    1
    35    19    47    2
    36    20    54    1
    37    20   105    1
    38    21    58    1
    39    21   108    1
    40    22    59    1
    41    22   109    1
    42    23    60    1
    43    23   110    1
    44    24    66    1
    45    24   113    1
    46    25    26    1
    47    25    35    1
    48    25    67    1
    49    26    27    1
    50    26    68    1
    51    27    32    1
    52    27    69    1
    53    28    29    1
    54    28    30    1
    55    28    70    1
    56    29    31    1
    57    29    71    1
    58    30    33    1
    59    30    72    1
    60    31    73    1
    61    32    34    1
    62    32    74    1
    63    33    39    1
    64    33    75    1
    65    34    76    1
    66    35    77    1
    67    35    78    1
    68    36    37    1
    69    36    38    1
    70    36    79    1
    71    37    40    1
    72    37    80    1
    73    38    41    1
    74    38    81    1
    75    39    83    1
    76    39    84    1
    77    39    85    1
    78    40    42    1
    79    40    82    1
    80    41    86    1
    81    42    92    1
    82    42    93    1
    83    43    46   ar
    84    43    48   ar
    85    44    45   ar
    86    44    46   ar
    87    44    49   ar
    88    45    50   ar
    89    46    96    1
    90    47    53    1
    91    48    51    1
    92    49    52   ar
    93    50    54   ar
    94    50    98    1
    95    51    55   ar
    96    51    56   ar
    97    52    54   ar
    98    52   100    1
    99    53    57    2
   100    53   101    1
   101    55    59   ar
   102    55   102    1
   103    56    58   ar
   104    56   103    1
   105    57    61    1
   106    57   104    1
   107    58    60   ar
   108    59    60   ar
   109    61    62   ar
   110    61    63   ar
   111    62    64   ar
   112    62   106    1
   113    63    65   ar
   114    63   107    1
   115    64    66   ar
   116    64   111    1
   117    65    66   ar
   118    65   112    1
