@<TRIPOS>MOLECULE
IMPHY014665
 254 260 0 0 0
SMALL
GASTEIGER

@<TRIPOS>ATOM
      1 O          21.5895    6.8450    0.0000 O.3     1  UNL1       -0.3401
      2 O          20.7235    5.3450    0.0000 O.3     1  UNL1       -0.3405
      3 O           6.0010    9.8450    0.0000 O.3     1  UNL1       -0.3378
      4 O          24.1876  -13.6550    0.0000 O.3     1  UNL1       -0.3378
      5 O           6.8671   12.3450    0.0000 O.3     1  UNL1       -0.3405
      6 O          22.4555  -11.6550    0.0000 O.3     1  UNL1       -0.3405
      7 O          18.9914    8.3450    0.0000 O.3     1  UNL1       -0.3431
      8 O          25.0536  -12.1550    0.0000 O.3     1  UNL1       -0.3405
      9 O           4.2690    9.8450    0.0000 O.3     1  UNL1       -0.3405
     10 O           7.7331   10.8450    0.0000 O.3     1  UNL1       -0.3384
     11 O          24.1876  -11.6550    0.0000 O.3     1  UNL1       -0.3384
     12 O          19.8574    2.8450    0.0000 O.3     1  UNL1       -0.3460
     13 O           4.2690   10.8450    0.0000 O.3     1  UNL1       -0.3864
     14 O          22.4555  -14.6550    0.0000 O.3     1  UNL1       -0.3864
     15 O          23.3215    5.8450    0.0000 O.3     1  UNL1       -0.3841
     16 O          21.5895    2.8450    0.0000 O.3     1  UNL1       -0.3865
     17 O          23.3215    3.8450    0.0000 O.3     1  UNL1       -0.3864
     18 O          19.8574    5.8450    0.0000 O.3     1  UNL1       -0.3866
     19 O          18.1254    2.8450    0.0000 O.3     1  UNL1       -0.3430
     20 O           4.2690   12.8450    0.0000 O.3     1  UNL1       -0.3865
     21 O          20.7235  -13.6550    0.0000 O.3     1  UNL1       -0.3865
     22 O          21.5895    8.8450    0.0000 O.3     1  UNL1       -0.3841
     23 O          19.8574    9.8450    0.0000 O.3     1  UNL1       -0.3444
     24 O          25.9196  -14.6550    0.0000 O.3     1  UNL1       -0.3841
     25 O           6.0010    7.8450    0.0000 O.3     1  UNL1       -0.3841
     26 O          27.6517  -13.6550    0.0000 O.3     1  UNL1       -0.3864
     27 O           4.2690    6.8450    0.0000 O.3     1  UNL1       -0.3864
     28 O          27.6517  -11.6550    0.0000 O.3     1  UNL1       -0.3865
     29 O           2.5369    7.8450    0.0000 O.3     1  UNL1       -0.3865
     30 O          18.1254   -0.1550    0.0000 O.3     1  UNL1       -0.4526
     31 O          19.8574    0.8450    0.0000 O.3     1  UNL1       -0.3830
     32 O           5.1350   14.3450    0.0000 O.3     1  UNL1       -0.3924
     33 O          20.7235  -10.6550    0.0000 O.3     1  UNL1       -0.3924
     34 O          16.3933    0.8450    0.0000 O.3     1  UNL1       -0.3855
     35 O          26.7856  -10.1550    0.0000 O.3     1  UNL1       -0.3924
     36 O           2.5369   10.8450    0.0000 O.3     1  UNL1       -0.3924
     37 O          19.8574   -0.1550    0.0000 O.2     1  UNL1       -0.2453
     38 O          18.9914   -3.6550    0.0000 O.3     1  UNL1       -0.3874
     39 C           6.0010   10.8450    0.0000 C.3     1  UNL1        0.1406
     40 C          23.3215  -13.1550    0.0000 C.3     1  UNL1        0.1406
     41 C          20.7235    7.3450    0.0000 C.3     1  UNL1        0.1205
     42 C          21.5895    5.8450    0.0000 C.3     1  UNL1        0.1884
     43 C           5.1350   11.3450    0.0000 C.3     1  UNL1        0.1144
     44 C          22.4555  -13.6550    0.0000 C.3     1  UNL1        0.1144
     45 C          22.4555    5.3450    0.0000 C.3     1  UNL1        0.1341
     46 C          20.7235    4.3450    0.0000 C.3     1  UNL1        0.1134
     47 C          21.5895    3.8450    0.0000 C.3     1  UNL1        0.1119
     48 C          22.4555    4.3450    0.0000 C.3     1  UNL1        0.1141
     49 C          19.8574    6.8450    0.0000 C.3     1  UNL1        0.1098
     50 C           6.8671   11.3450    0.0000 C.3     1  UNL1        0.1893
     51 C          23.3215  -12.1550    0.0000 C.3     1  UNL1        0.1893
     52 C           5.1350   12.3450    0.0000 C.3     1  UNL1        0.1119
     53 C          21.5895  -13.1550    0.0000 C.3     1  UNL1        0.1119
     54 C          20.7235    8.3450    0.0000 C.3     1  UNL1        0.1345
     55 C           6.0010   12.8450    0.0000 C.3     1  UNL1        0.1130
     56 C          21.5895  -12.1550    0.0000 C.3     1  UNL1        0.1130
     57 C          25.0536  -13.1550    0.0000 C.3     1  UNL1        0.1885
     58 C           5.1350    9.3450    0.0000 C.3     1  UNL1        0.1885
     59 C          18.9914    7.3450    0.0000 C.3     1  UNL1        0.0873
     60 C          25.9196  -13.6550    0.0000 C.3     1  UNL1        0.1341
     61 C           5.1350    8.3450    0.0000 C.3     1  UNL1        0.1341
     62 C          19.8574    8.8450    0.0000 C.3     1  UNL1        0.1882
     63 C          26.7856  -13.1550    0.0000 C.3     1  UNL1        0.1141
     64 C           4.2690    7.8450    0.0000 C.3     1  UNL1        0.1141
     65 C          26.7856  -12.1550    0.0000 C.3     1  UNL1        0.1119
     66 C           3.4030    8.3450    0.0000 C.3     1  UNL1        0.1119
     67 C          25.9196  -11.6550    0.0000 C.3     1  UNL1        0.1130
     68 C           3.4030    9.3450    0.0000 C.3     1  UNL1        0.1130
     69 C          19.8574    3.8450    0.0000 C.3     1  UNL1        0.0796
     70 C          18.9914    2.3450    0.0000 C.3     1  UNL1        0.1890
     71 C          18.9914    1.3450    0.0000 C.3     1  UNL1        0.1451
     72 C           8.5991   11.3450    0.0000 C.3     1  UNL1        0.0879
     73 C          24.1876  -10.6550    0.0000 C.3     1  UNL1        0.0879
     74 C          18.1254    0.8450    0.0000 C.3     1  UNL1        0.1619
     75 C           6.0010   13.8450    0.0000 C.3     1  UNL1        0.0730
     76 C          20.7235  -11.6550    0.0000 C.3     1  UNL1        0.0730
     77 C          17.2594    1.3450    0.0000 C.3     1  UNL1        0.1205
     78 C          17.2594    2.3450    0.0000 C.3     1  UNL1        0.0884
     79 C          18.1254    6.8450    0.0000 C.3     1  UNL1       -0.0361
     80 C          25.9196  -10.6550    0.0000 C.3     1  UNL1        0.0730
     81 C           2.5369    9.8450    0.0000 C.3     1  UNL1        0.0730
     82 C           9.4651   11.8450    0.0000 C.3     1  UNL1       -0.0169
     83 C          24.1876   -9.6550    0.0000 C.3     1  UNL1       -0.0169
     84 C           9.0991   10.4790    0.0000 C.3     1  UNL1       -0.0321
     85 C          23.1876  -10.6550    0.0000 C.3     1  UNL1       -0.0321
     86 C          16.3933    2.8450    0.0000 C.3     1  UNL1       -0.0360
     87 C           8.0991   12.2110    0.0000 C.2     1  UNL1       -0.0599
     88 C          25.1876  -10.6550    0.0000 C.2     1  UNL1       -0.0599
     89 C          10.3312   11.3450    0.0000 C.3     1  UNL1       -0.0316
     90 C          23.3215   -9.1550    0.0000 C.3     1  UNL1       -0.0316
     91 C          18.9914   10.3450    0.0000 C.3     1  UNL1        0.0716
     92 C          18.9914   11.3450    0.0000 C.2     1  UNL1       -0.0511
     93 C          11.1972   11.8450    0.0000 C.2     1  UNL1       -0.0849
     94 C          23.3215   -8.1550    0.0000 C.2     1  UNL1       -0.0849
     95 C           8.5991   13.0771    0.0000 C.2     1  UNL1       -0.1000
     96 C          25.6876   -9.7890    0.0000 C.2     1  UNL1       -0.1000
     97 C          18.9914   -0.6550    0.0000 C.2     1  UNL1        0.3351
     98 C          12.0632   11.3450    0.0000 C.2     1  UNL1       -0.0762
     99 C          22.4555   -7.6550    0.0000 C.2     1  UNL1       -0.0762
    100 C          18.1254   11.8450    0.0000 C.2     1  UNL1       -0.0826
    101 C          19.8574   11.8450    0.0000 C.3     1  UNL1       -0.0416
    102 C          18.9914   -1.6550    0.0000 C.2     1  UNL1        0.0320
    103 C          12.9292   11.8450    0.0000 C.3     1  UNL1       -0.0286
    104 C          22.4555   -6.6550    0.0000 C.3     1  UNL1       -0.0286
    105 C          17.2594   11.3450    0.0000 C.3     1  UNL1       -0.0308
    106 C          12.0632   10.3450    0.0000 C.3     1  UNL1       -0.0438
    107 C          21.5895   -8.1550    0.0000 C.3     1  UNL1       -0.0438
    108 C          13.7953   11.3450    0.0000 C.3     1  UNL1       -0.0308
    109 C          16.3933   11.8450    0.0000 C.3     1  UNL1       -0.0286
    110 C          21.5895   -6.1550    0.0000 C.3     1  UNL1       -0.0308
    111 C          19.8574   -2.1550    0.0000 C.2     1  UNL1       -0.0459
    112 C          18.1254   -2.1550    0.0000 C.3     1  UNL1       -0.0332
    113 C          19.8574   -3.1550    0.0000 C.3     1  UNL1        0.0777
    114 C          15.5273   11.3450    0.0000 C.2     1  UNL1       -0.0762
    115 C          14.6613   11.8450    0.0000 C.2     1  UNL1       -0.0847
    116 C          20.7235   -3.6550    0.0000 C.3     1  UNL1       -0.0022
    117 C          21.5895   -5.1550    0.0000 C.2     1  UNL1       -0.0846
    118 C          20.7235   -4.6550    0.0000 C.2     1  UNL1       -0.0738
    119 C          15.5273   10.3450    0.0000 C.3     1  UNL1       -0.0438
    120 C          19.8574   -5.1550    0.0000 C.3     1  UNL1       -0.0437
    121 H           5.4641   10.5350    0.0000 H       1  UNL1        0.0675
    122 H          23.3215  -13.7750    0.0000 H       1  UNL1        0.0675
    123 H          20.7235    6.7250    0.0000 H       1  UNL1        0.0651
    124 H          22.1264    6.1550    0.0000 H       1  UNL1        0.0938
    125 H           4.5981   11.6550    0.0000 H       1  UNL1        0.0648
    126 H          21.9186  -13.9650    0.0000 H       1  UNL1        0.0648
    127 H          20.1865    4.6550    0.0000 H       1  UNL1        0.0647
    128 H          22.9925    5.0350    0.0000 H       1  UNL1        0.0671
    129 H          22.1264    3.5350    0.0000 H       1  UNL1        0.0647
    130 H          22.4555    3.7250    0.0000 H       1  UNL1        0.0648
    131 H          20.3944    6.5350    0.0000 H       1  UNL1        0.0646
    132 H           6.8671   10.7250    0.0000 H       1  UNL1        0.0938
    133 H          23.8585  -12.4650    0.0000 H       1  UNL1        0.0938
    134 H           4.5981   12.0350    0.0000 H       1  UNL1        0.0647
    135 H          21.5895  -13.7750    0.0000 H       1  UNL1        0.0647
    136 H          21.2604    8.0350    0.0000 H       1  UNL1        0.0671
    137 H           6.5380   13.1550    0.0000 H       1  UNL1        0.0647
    138 H          21.5895  -11.5350    0.0000 H       1  UNL1        0.0647
    139 H          25.0536  -13.7750    0.0000 H       1  UNL1        0.0938
    140 H           5.1350    9.9650    0.0000 H       1  UNL1        0.0938
    141 H          18.4545    7.6550    0.0000 H       1  UNL1        0.0621
    142 H          26.4566  -13.9650    0.0000 H       1  UNL1        0.0671
    143 H           5.6720    8.6550    0.0000 H       1  UNL1        0.0671
    144 H          20.3944    9.1550    0.0000 H       1  UNL1        0.0937
    145 H          26.7856  -13.7750    0.0000 H       1  UNL1        0.0648
    146 H           4.8059    7.5350    0.0000 H       1  UNL1        0.0648
    147 H          27.3226  -12.4650    0.0000 H       1  UNL1        0.0647
    148 H           2.8660    8.6550    0.0000 H       1  UNL1        0.0647
    149 H          25.3827  -11.3450    0.0000 H       1  UNL1        0.0647
    150 H           3.4030    9.9650    0.0000 H       1  UNL1        0.0647
    151 H          19.6454    4.4276    0.0000 H       1  UNL1        0.0587
    152 H          19.2469    3.7373    0.0000 H       1  UNL1        0.0587
    153 H          18.9914    2.9650    0.0000 H       1  UNL1        0.0938
    154 H          18.9914    0.7250    0.0000 H       1  UNL1        0.0682
    155 H          17.5885    0.5350    0.0000 H       1  UNL1        0.0789
    156 H           6.6116   13.7373    0.0000 H       1  UNL1        0.0584
    157 H           6.2131   14.4276    0.0000 H       1  UNL1        0.0584
    158 H          20.1129  -11.5473    0.0000 H       1  UNL1        0.0584
    159 H          20.5114  -12.2376    0.0000 H       1  UNL1        0.0584
    160 H          16.7224    1.6550    0.0000 H       1  UNL1        0.0657
    161 H          17.2594    2.9650    0.0000 H       1  UNL1        0.0621
    162 H          17.8154    7.3819    0.0000 H       1  UNL1        0.0255
    163 H          17.5885    6.5350    0.0000 H       1  UNL1        0.0255
    164 H          18.4354    6.3081    0.0000 H       1  UNL1        0.0255
    165 H          25.7076  -10.0724    0.0000 H       1  UNL1        0.0584
    166 H          25.3090  -10.7627    0.0000 H       1  UNL1        0.0584
    167 H           1.9264    9.9527    0.0000 H       1  UNL1        0.0584
    168 H           2.3249    9.2624    0.0000 H       1  UNL1        0.0584
    169 H           3.7320   11.1550    0.0000 H       1  UNL1        0.2100
    170 H          21.9186  -14.9650    0.0000 H       1  UNL1        0.2100
    171 H          23.3215    6.4650    0.0000 H       1  UNL1        0.2101
    172 H          22.1264    2.5350    0.0000 H       1  UNL1        0.2100
    173 H          23.8585    4.1550    0.0000 H       1  UNL1        0.2100
    174 H           9.8637   12.3199    0.0000 H       1  UNL1        0.0299
    175 H           9.0666   12.3199    0.0000 H       1  UNL1        0.0299
    176 H          24.7982   -9.7627    0.0000 H       1  UNL1        0.0299
    177 H          24.3996   -9.0724    0.0000 H       1  UNL1        0.0299
    178 H          19.3205    5.5350    0.0000 H       1  UNL1        0.2100
    179 H           3.7320   12.5350    0.0000 H       1  UNL1        0.2100
    180 H          20.1865  -13.3450    0.0000 H       1  UNL1        0.2100
    181 H          21.5895    9.4650    0.0000 H       1  UNL1        0.2101
    182 H          26.4566  -14.9650    0.0000 H       1  UNL1        0.2101
    183 H           6.0010    7.2250    0.0000 H       1  UNL1        0.2101
    184 H           8.5622   10.1690    0.0000 H       1  UNL1        0.0260
    185 H           9.4091    9.9420    0.0000 H       1  UNL1        0.0260
    186 H           9.6360   10.7890    0.0000 H       1  UNL1        0.0260
    187 H          23.1876  -10.0350    0.0000 H       1  UNL1        0.0260
    188 H          22.5676  -10.6550    0.0000 H       1  UNL1        0.0260
    189 H          23.1876  -11.2750    0.0000 H       1  UNL1        0.0260
    190 H          28.1886  -13.3450    0.0000 H       1  UNL1        0.2100
    191 H           3.7320    6.5350    0.0000 H       1  UNL1        0.2100
    192 H          28.1886  -11.9650    0.0000 H       1  UNL1        0.2100
    193 H           2.0000    8.1550    0.0000 H       1  UNL1        0.2100
    194 H          16.7033    3.3819    0.0000 H       1  UNL1        0.0255
    195 H          15.8564    3.1550    0.0000 H       1  UNL1        0.0255
    196 H          16.0833    2.3081    0.0000 H       1  UNL1        0.0255
    197 H           7.4791   12.2110    0.0000 H       1  UNL1        0.0594
    198 H          25.4976  -11.1919    0.0000 H       1  UNL1        0.0594
    199 H           9.9326   10.8701    0.0000 H       1  UNL1        0.0308
    200 H          10.7297   10.8701    0.0000 H       1  UNL1        0.0308
    201 H          22.7110   -9.0473    0.0000 H       1  UNL1        0.0308
    202 H          23.1095   -9.7376    0.0000 H       1  UNL1        0.0308
    203 H          18.3808   10.4527    0.0000 H       1  UNL1        0.0608
    204 H          18.7794    9.7624    0.0000 H       1  UNL1        0.0608
    205 H          20.3944    1.1550    0.0000 H       1  UNL1        0.2102
    206 H           5.1350   14.9650    0.0000 H       1  UNL1        0.2095
    207 H          20.1865  -10.3450    0.0000 H       1  UNL1        0.2095
    208 H          15.8564    1.1550    0.0000 H       1  UNL1        0.2101
    209 H          26.7856   -9.5350    0.0000 H       1  UNL1        0.2095
    210 H           2.0000   11.1550    0.0000 H       1  UNL1        0.2095
    211 H          11.1972   12.4650    0.0000 H       1  UNL1        0.0572
    212 H          23.8585   -7.8450    0.0000 H       1  UNL1        0.0572
    213 H           9.2191   13.0771    0.0000 H       1  UNL1        0.0533
    214 H           8.2891   13.6140    0.0000 H       1  UNL1        0.0533
    215 H          26.3076   -9.7890    0.0000 H       1  UNL1        0.0533
    216 H          25.3776   -9.2520    0.0000 H       1  UNL1        0.0533
    217 H          18.1254   12.4650    0.0000 H       1  UNL1        0.0572
    218 H          20.1674   11.3081    0.0000 H       1  UNL1        0.0275
    219 H          20.3944   12.1550    0.0000 H       1  UNL1        0.0275
    220 H          19.5474   12.3819    0.0000 H       1  UNL1        0.0275
    221 H          13.3278   12.3199    0.0000 H       1  UNL1        0.0313
    222 H          12.5307   12.3199    0.0000 H       1  UNL1        0.0313
    223 H          23.0661   -6.7627    0.0000 H       1  UNL1        0.0313
    224 H          22.6676   -6.0724    0.0000 H       1  UNL1        0.0313
    225 H          16.8608   10.8701    0.0000 H       1  UNL1        0.0310
    226 H          17.6579   10.8701    0.0000 H       1  UNL1        0.0310
    227 H          11.4432   10.3450    0.0000 H       1  UNL1        0.0274
    228 H          12.0632    9.7250    0.0000 H       1  UNL1        0.0274
    229 H          12.6832   10.3450    0.0000 H       1  UNL1        0.0274
    230 H          21.2795   -7.6181    0.0000 H       1  UNL1        0.0274
    231 H          21.0526   -8.4650    0.0000 H       1  UNL1        0.0274
    232 H          21.8995   -8.6919    0.0000 H       1  UNL1        0.0274
    233 H          13.3967   10.8701    0.0000 H       1  UNL1        0.0310
    234 H          14.1938   10.8701    0.0000 H       1  UNL1        0.0310
    235 H          16.7919   12.3199    0.0000 H       1  UNL1        0.0313
    236 H          15.9948   12.3199    0.0000 H       1  UNL1        0.0313
    237 H          20.9789   -6.0473    0.0000 H       1  UNL1        0.0310
    238 H          21.3774   -6.7376    0.0000 H       1  UNL1        0.0310
    239 H          20.3944   -1.8450    0.0000 H       1  UNL1        0.0602
    240 H          17.8154   -1.6181    0.0000 H       1  UNL1        0.0280
    241 H          17.5885   -2.4650    0.0000 H       1  UNL1        0.0280
    242 H          18.4354   -2.6919    0.0000 H       1  UNL1        0.0280
    243 H          19.3205   -2.8450    0.0000 H       1  UNL1        0.0641
    244 H          14.6613   12.4650    0.0000 H       1  UNL1        0.0572
    245 H          21.3340   -3.7627    0.0000 H       1  UNL1        0.0338
    246 H          20.9355   -3.0724    0.0000 H       1  UNL1        0.0338
    247 H          22.1264   -4.8450    0.0000 H       1  UNL1        0.0572
    248 H          14.9073   10.3450    0.0000 H       1  UNL1        0.0274
    249 H          15.5273    9.7250    0.0000 H       1  UNL1        0.0274
    250 H          16.1473   10.3450    0.0000 H       1  UNL1        0.0274
    251 H          19.5474   -4.6181    0.0000 H       1  UNL1        0.0274
    252 H          19.3205   -5.4650    0.0000 H       1  UNL1        0.0274
    253 H          20.1674   -5.6919    0.0000 H       1  UNL1        0.0274
    254 H          18.4545   -3.3450    0.0000 H       1  UNL1        0.2102
@<TRIPOS>BOND
     1     1    41    1
     2     1    42    1
     3     2    42    1
     4     2    46    1
     5     3    39    1
     6     3    58    1
     7     4    40    1
     8     4    57    1
     9     5    50    1
    10     5    55    1
    11     6    51    1
    12     6    56    1
    13     7    59    1
    14     7    62    1
    15     8    57    1
    16     8    67    1
    17     9    58    1
    18     9    68    1
    19    10    50    1
    20    10    72    1
    21    11    51    1
    22    11    73    1
    23    12    69    1
    24    12    70    1
    25    13    43    1
    26    13   169    1
    27    14    44    1
    28    14   170    1
    29    15    45    1
    30    15   171    1
    31    16    47    1
    32    16   172    1
    33    17    48    1
    34    17   173    1
    35    18    49    1
    36    18   178    1
    37    19    70    1
    38    19    78    1
    39    20    52    1
    40    20   179    1
    41    21    53    1
    42    21   180    1
    43    22    54    1
    44    22   181    1
    45    23    62    1
    46    23    91    1
    47    24    60    1
    48    24   182    1
    49    25    61    1
    50    25   183    1
    51    26    63    1
    52    26   190    1
    53    27    64    1
    54    27   191    1
    55    28    65    1
    56    28   192    1
    57    29    66    1
    58    29   193    1
    59    30    74    1
    60    30    97    1
    61    31    71    1
    62    31   205    1
    63    32    75    1
    64    32   206    1
    65    33    76    1
    66    33   207    1
    67    34    77    1
    68    34   208    1
    69    35    80    1
    70    35   209    1
    71    36    81    1
    72    36   210    1
    73    37    97    2
    74    38   113    1
    75    38   254    1
    76    39    43    1
    77    39    50    1
    78    39   121    1
    79    40    44    1
    80    40    51    1
    81    40   122    1
    82    41    49    1
    83    41    54    1
    84    41   123    1
    85    42    45    1
    86    42   124    1
    87    43    52    1
    88    43   125    1
    89    44    53    1
    90    44   126    1
    91    45    48    1
    92    45   128    1
    93    46    47    1
    94    46    69    1
    95    46   127    1
    96    47    48    1
    97    47   129    1
    98    48   130    1
    99    49    59    1
   100    49   131    1
   101    50   132    1
   102    51   133    1
   103    52    55    1
   104    52   134    1
   105    53    56    1
   106    53   135    1
   107    54    62    1
   108    54   136    1
   109    55    75    1
   110    55   137    1
   111    56    76    1
   112    56   138    1
   113    57    60    1
   114    57   139    1
   115    58    61    1
   116    58   140    1
   117    59    79    1
   118    59   141    1
   119    60    63    1
   120    60   142    1
   121    61    64    1
   122    61   143    1
   123    62   144    1
   124    63    65    1
   125    63   145    1
   126    64    66    1
   127    64   146    1
   128    65    67    1
   129    65   147    1
   130    66    68    1
   131    66   148    1
   132    67    80    1
   133    67   149    1
   134    68    81    1
   135    68   150    1
   136    69   151    1
   137    69   152    1
   138    70    71    1
   139    70   153    1
   140    71    74    1
   141    71   154    1
   142    72    82    1
   143    72    84    1
   144    72    87    1
   145    73    83    1
   146    73    85    1
   147    73    88    1
   148    74    77    1
   149    74   155    1
   150    75   156    1
   151    75   157    1
   152    76   158    1
   153    76   159    1
   154    77    78    1
   155    77   160    1
   156    78    86    1
   157    78   161    1
   158    79   162    1
   159    79   163    1
   160    79   164    1
   161    80   165    1
   162    80   166    1
   163    81   167    1
   164    81   168    1
   165    82    89    1
   166    82   174    1
   167    82   175    1
   168    83    90    1
   169    83   176    1
   170    83   177    1
   171    84   184    1
   172    84   185    1
   173    84   186    1
   174    85   187    1
   175    85   188    1
   176    85   189    1
   177    86   194    1
   178    86   195    1
   179    86   196    1
   180    87    95    2
   181    87   197    1
   182    88    96    2
   183    88   198    1
   184    89    93    1
   185    89   199    1
   186    89   200    1
   187    90    94    1
   188    90   201    1
   189    90   202    1
   190    91    92    1
   191    91   203    1
   192    91   204    1
   193    92   100    2
   194    92   101    1
   195    93    98    2
   196    93   211    1
   197    94    99    2
   198    94   212    1
   199    95   213    1
   200    95   214    1
   201    96   215    1
   202    96   216    1
   203    97   102    1
   204    98   103    1
   205    98   106    1
   206    99   104    1
   207    99   107    1
   208   100   105    1
   209   100   217    1
   210   101   218    1
   211   101   219    1
   212   101   220    1
   213   102   111    2
   214   102   112    1
   215   103   108    1
   216   103   221    1
   217   103   222    1
   218   104   110    1
   219   104   223    1
   220   104   224    1
   221   105   109    1
   222   105   225    1
   223   105   226    1
   224   106   227    1
   225   106   228    1
   226   106   229    1
   227   107   230    1
   228   107   231    1
   229   107   232    1
   230   108   115    1
   231   108   233    1
   232   108   234    1
   233   109   114    1
   234   109   235    1
   235   109   236    1
   236   110   117    1
   237   110   237    1
   238   110   238    1
   239   111   113    1
   240   111   239    1
   241   112   240    1
   242   112   241    1
   243   112   242    1
   244   113   116    1
   245   113   243    1
   246   114   115    2
   247   114   119    1
   248   115   244    1
   249   116   118    1
   250   116   245    1
   251   116   246    1
   252   117   118    2
   253   117   247    1
   254   118   120    1
   255   119   248    1
   256   119   249    1
   257   119   250    1
   258   120   251    1
   259   120   252    1
   260   120   253    1
