@<TRIPOS>MOLECULE
IMPHY002082
 19 19 0 0 0
SMALL
GASTEIGER

@<TRIPOS>ATOM
      1 O           2.8660    0.8450    0.0000 O.3     1  UNL1       -0.4915
      2 O           4.5981    1.8450    0.0000 O.3     1  UNL1       -0.5033
      3 O           6.3301   -2.1550    0.0000 O.2     1  UNL1       -0.2957
      4 C           3.7320    0.3450    0.0000 C.ar    1  UNL1        0.1613
      5 C           4.5981    0.8450    0.0000 C.ar    1  UNL1        0.1591
      6 C           5.4641   -0.6550    0.0000 C.ar    1  UNL1        0.0179
      7 C           5.4641    0.3450    0.0000 C.ar    1  UNL1       -0.0063
      8 C           3.7320   -0.6550    0.0000 C.ar    1  UNL1       -0.0157
      9 C           4.5981   -1.1550    0.0000 C.ar    1  UNL1       -0.0479
     10 C           6.3301   -1.1550    0.0000 C.2     1  UNL1        0.1503
     11 C           2.0000    0.3450    0.0000 C.3     1  UNL1        0.0790
     12 H           6.0010    0.6550    0.0000 H       1  UNL1        0.0662
     13 H           3.1951   -0.9650    0.0000 H       1  UNL1        0.0655
     14 H           4.5981   -1.7750    0.0000 H       1  UNL1        0.0626
     15 H           6.8671   -0.8450    0.0000 H       1  UNL1        0.1081
     16 H           1.6900    0.8819    0.0000 H       1  UNL1        0.0660
     17 H           1.4631    0.0350    0.0000 H       1  UNL1        0.0660
     18 H           2.3100   -0.1919    0.0000 H       1  UNL1        0.0660
     19 H           5.1350    2.1550    0.0000 H       1  UNL1        0.2923
@<TRIPOS>BOND
     1     1     4    1
     2     1    11    1
     3     2     5    1
     4     2    19    1
     5     3    10    2
     6     4     5   ar
     7     4     8   ar
     8     5     7   ar
     9     6     7   ar
    10     6     9   ar
    11     6    10    1
    12     7    12    1
    13     8     9   ar
    14     8    13    1
    15     9    14    1
    16    10    15    1
    17    11    16    1
    18    11    17    1
    19    11    18    1
