@<TRIPOS>MOLECULE
IMPHY017362
 45 44 0 0 0
SMALL
GASTEIGER

@<TRIPOS>ATOM
      1 C           8.5991    0.4400    0.0000 C.3     1  UNL1       -0.0531
      2 C           9.4651   -0.0600    0.0000 C.3     1  UNL1       -0.0531
      3 C           7.7331   -0.0600    0.0000 C.3     1  UNL1       -0.0531
      4 C          10.3312    0.4400    0.0000 C.3     1  UNL1       -0.0531
      5 C           6.8671    0.4400    0.0000 C.3     1  UNL1       -0.0530
      6 C          11.1972   -0.0600    0.0000 C.3     1  UNL1       -0.0531
      7 C           6.0010   -0.0600    0.0000 C.3     1  UNL1       -0.0528
      8 C          12.0632    0.4400    0.0000 C.3     1  UNL1       -0.0533
      9 C           5.1350    0.4400    0.0000 C.3     1  UNL1       -0.0496
     10 C          12.9292   -0.0600    0.0000 C.3     1  UNL1       -0.0559
     11 C           4.2690   -0.0600    0.0000 C.3     1  UNL1       -0.0348
     12 C          13.7953    0.4400    0.0000 C.3     1  UNL1       -0.0653
     13 C           3.4030    0.4400    0.0000 C.2     1  UNL1       -0.0882
     14 C           2.5369   -0.0600    0.0000 C.2     1  UNL1       -0.0910
     15 C           2.5369   -1.0600    0.0000 C.3     1  UNL1       -0.0468
     16 H           8.9976    0.9149    0.0000 H       1  UNL1        0.0265
     17 H           8.2006    0.9149    0.0000 H       1  UNL1        0.0265
     18 H           9.0666   -0.5349    0.0000 H       1  UNL1        0.0265
     19 H           9.8637   -0.5349    0.0000 H       1  UNL1        0.0265
     20 H           7.3346   -0.5349    0.0000 H       1  UNL1        0.0265
     21 H           8.1316   -0.5349    0.0000 H       1  UNL1        0.0265
     22 H          10.7297    0.9149    0.0000 H       1  UNL1        0.0265
     23 H           9.9326    0.9149    0.0000 H       1  UNL1        0.0265
     24 H           7.2656    0.9149    0.0000 H       1  UNL1        0.0265
     25 H           6.4685    0.9149    0.0000 H       1  UNL1        0.0265
     26 H          10.7987   -0.5349    0.0000 H       1  UNL1        0.0265
     27 H          11.5957   -0.5349    0.0000 H       1  UNL1        0.0265
     28 H           5.6025   -0.5349    0.0000 H       1  UNL1        0.0265
     29 H           6.3996   -0.5349    0.0000 H       1  UNL1        0.0265
     30 H          12.4617    0.9149    0.0000 H       1  UNL1        0.0265
     31 H          11.6647    0.9149    0.0000 H       1  UNL1        0.0265
     32 H           5.5335    0.9149    0.0000 H       1  UNL1        0.0268
     33 H           4.7365    0.9149    0.0000 H       1  UNL1        0.0268
     34 H          12.5307   -0.5349    0.0000 H       1  UNL1        0.0263
     35 H          13.3278   -0.5349    0.0000 H       1  UNL1        0.0263
     36 H           3.8705   -0.5349    0.0000 H       1  UNL1        0.0307
     37 H           4.6675   -0.5349    0.0000 H       1  UNL1        0.0307
     38 H          14.1053   -0.0969    0.0000 H       1  UNL1        0.0230
     39 H          14.3322    0.7500    0.0000 H       1  UNL1        0.0230
     40 H          13.4853    0.9769    0.0000 H       1  UNL1        0.0230
     41 H           3.4030    1.0600    0.0000 H       1  UNL1        0.0569
     42 H           2.0000    0.2500    0.0000 H       1  UNL1        0.0566
     43 H           1.9169   -1.0600    0.0000 H       1  UNL1        0.0272
     44 H           2.5369   -1.6800    0.0000 H       1  UNL1        0.0272
     45 H           3.1569   -1.0600    0.0000 H       1  UNL1        0.0272
@<TRIPOS>BOND
     1     1     2    1
     2     1     3    1
     3     1    16    1
     4     1    17    1
     5     2     4    1
     6     2    18    1
     7     2    19    1
     8     3     5    1
     9     3    20    1
    10     3    21    1
    11     4     6    1
    12     4    22    1
    13     4    23    1
    14     5     7    1
    15     5    24    1
    16     5    25    1
    17     6     8    1
    18     6    26    1
    19     6    27    1
    20     7     9    1
    21     7    28    1
    22     7    29    1
    23     8    10    1
    24     8    30    1
    25     8    31    1
    26     9    11    1
    27     9    32    1
    28     9    33    1
    29    10    12    1
    30    10    34    1
    31    10    35    1
    32    11    13    1
    33    11    36    1
    34    11    37    1
    35    12    38    1
    36    12    39    1
    37    12    40    1
    38    13    14    2
    39    13    41    1
    40    14    15    1
    41    14    42    1
    42    15    43    1
    43    15    44    1
    44    15    45    1
