@<TRIPOS>MOLECULE
IMPHY017295
 42 43 0 0 0
SMALL
GASTEIGER

@<TRIPOS>ATOM
      1 O           6.3465   -1.8765    0.0000 O.3     1  UNL1       -0.3912
      2 C           5.4641   -0.3419    0.0000 C.3     1  UNL1       -0.0030
      3 C           5.4641    0.6581    0.0000 C.3     1  UNL1       -0.0302
      4 C           6.3580    1.1928    0.0000 C.3     1  UNL1       -0.0404
      5 C           6.3580   -0.8766    0.0000 C.3     1  UNL1        0.0609
      6 C           4.5981   -0.8419    0.0000 C.3     1  UNL1       -0.0445
      7 C           4.5981    1.1581    0.0000 C.3     1  UNL1       -0.0429
      8 C           3.7320    0.6581    0.0000 C.3     1  UNL1       -0.0201
      9 C           7.2641    0.6789    0.0000 C.3     1  UNL1       -0.0478
     10 C           3.7320   -0.3419    0.0000 C.3     1  UNL1       -0.0459
     11 C           7.2641   -0.3627    0.0000 C.3     1  UNL1       -0.0261
     12 C           5.4641   -1.3419    0.0000 C.3     1  UNL1       -0.0569
     13 C           6.3465    2.1927    0.0000 C.3     1  UNL1       -0.0621
     14 C           2.8660    1.1581    0.0000 C.2     1  UNL1       -0.0766
     15 C           2.0000    0.6581    0.0000 C.3     1  UNL1       -0.0438
     16 C           2.8660    2.1581    0.0000 C.2     1  UNL1       -0.0994
     17 H           5.4593    1.2781    0.0000 H       1  UNL1        0.0310
     18 H           6.8920    1.5079    0.0000 H       1  UNL1        0.0301
     19 H           6.8920   -1.1917    0.0000 H       1  UNL1        0.0599
     20 H           4.1996   -1.3168    0.0000 H       1  UNL1        0.0272
     21 H           4.9966   -1.3168    0.0000 H       1  UNL1        0.0272
     22 H           4.9966    1.6330    0.0000 H       1  UNL1        0.0274
     23 H           4.1996    1.6330    0.0000 H       1  UNL1        0.0274
     24 H           3.1951    0.3481    0.0000 H       1  UNL1        0.0346
     25 H           7.8750    0.5728    0.0000 H       1  UNL1        0.0269
     26 H           7.4732    1.2626    0.0000 H       1  UNL1        0.0269
     27 H           3.1215   -0.2342    0.0000 H       1  UNL1        0.0271
     28 H           3.5200   -0.9245    0.0000 H       1  UNL1        0.0271
     29 H           7.4732   -0.9464    0.0000 H       1  UNL1        0.0290
     30 H           7.8750   -0.2566    0.0000 H       1  UNL1        0.0290
     31 H           4.8441   -1.3419    0.0000 H       1  UNL1        0.0236
     32 H           5.4641   -1.9619    0.0000 H       1  UNL1        0.0236
     33 H           6.0841   -1.3419    0.0000 H       1  UNL1        0.0236
     34 H           6.9664    2.1999    0.0000 H       1  UNL1        0.0233
     35 H           6.3393    2.8126    0.0000 H       1  UNL1        0.0233
     36 H           5.7265    2.1855    0.0000 H       1  UNL1        0.0233
     37 H           6.8798   -2.1927    0.0000 H       1  UNL1        0.2098
     38 H           1.6900    1.1950    0.0000 H       1  UNL1        0.0274
     39 H           1.4631    0.3481    0.0000 H       1  UNL1        0.0274
     40 H           2.3100    0.1212    0.0000 H       1  UNL1        0.0274
     41 H           3.4030    2.4681    0.0000 H       1  UNL1        0.0534
     42 H           2.3291    2.4681    0.0000 H       1  UNL1        0.0534
@<TRIPOS>BOND
     1     1     5    1
     2     1    37    1
     3     2     3    1
     4     2     5    1
     5     2     6    1
     6     2    12    1
     7     3     4    1
     8     3     7    1
     9     3    17    1
    10     4     9    1
    11     4    13    1
    12     4    18    1
    13     5    11    1
    14     5    19    1
    15     6    10    1
    16     6    20    1
    17     6    21    1
    18     7     8    1
    19     7    22    1
    20     7    23    1
    21     8    10    1
    22     8    14    1
    23     8    24    1
    24     9    11    1
    25     9    25    1
    26     9    26    1
    27    10    27    1
    28    10    28    1
    29    11    29    1
    30    11    30    1
    31    12    31    1
    32    12    32    1
    33    12    33    1
    34    13    34    1
    35    13    35    1
    36    13    36    1
    37    14    15    1
    38    14    16    2
    39    15    38    1
    40    15    39    1
    41    15    40    1
    42    16    41    1
    43    16    42    1
