@<TRIPOS>MOLECULE
IMPHY000339
 82 86 0 0 0
SMALL
GASTEIGER

@<TRIPOS>ATOM
      1 O           2.5357   -2.5933    0.0000 O.3     1  UNL1       -0.3912
      2 O          11.5367    0.5118    0.0000 O.3     1  UNL1       -0.3883
      3 O          11.5367    2.6034    0.0000 O.3     1  UNL1       -0.3887
      4 O          10.6064   -1.0134    0.0000 O.3     1  UNL1       -0.3941
      5 C           7.0628   -1.0410    0.0000 C.3     1  UNL1       -0.0159
      6 C           5.2868   -1.0478    0.0000 C.3     1  UNL1       -0.0218
      7 C           6.1968   -0.5410    0.0000 C.3     1  UNL1       -0.0107
      8 C           5.2787   -2.0894    0.0000 C.3     1  UNL1       -0.0276
      9 C           7.9288   -0.5410    0.0000 C.3     1  UNL1       -0.0011
     10 C           7.0789   -2.0825    0.0000 C.3     1  UNL1       -0.0460
     11 C           4.3433   -2.6391    0.0000 C.3     1  UNL1       -0.0056
     12 C           6.1808   -2.6102    0.0000 C.3     1  UNL1       -0.0486
     13 C           4.3599   -0.4837    0.0000 C.3     1  UNL1       -0.0444
     14 C           7.9288    0.4590    0.0000 C.2     1  UNL1       -0.0413
     15 C           8.8228   -1.0756    0.0000 C.3     1  UNL1       -0.0421
     16 C           9.7288    0.4799    0.0000 C.3     1  UNL1        0.0437
     17 C           3.4037   -2.0966    0.0000 C.3     1  UNL1        0.0606
     18 C           7.7056   -1.8070    0.0000 C.3     1  UNL1       -0.0582
     19 C           6.1968    0.4590    0.0000 C.2     1  UNL1       -0.0796
     20 C           8.8228    0.9937    0.0000 C.2     1  UNL1       -0.0544
     21 C           3.4120   -1.0117    0.0000 C.3     1  UNL1       -0.0258
     22 C           5.2945   -0.0478    0.0000 C.3     1  UNL1       -0.0587
     23 C           9.7288   -0.5618    0.0000 C.3     1  UNL1       -0.0383
     24 C           8.2709   -1.4806    0.0000 C.3     1  UNL1       -0.0550
     25 C           7.0628    0.9590    0.0000 C.2     1  UNL1       -0.0617
     26 C          10.6726    1.0151    0.0000 C.3     1  UNL1        0.0929
     27 C           8.7977    2.0784    0.0000 C.3     1  UNL1       -0.0229
     28 C           3.8467   -3.5071    0.0000 C.3     1  UNL1       -0.0572
     29 C           4.8466   -3.5032    0.0000 C.3     1  UNL1       -0.0572
     30 C           9.7288    2.6353    0.0000 C.3     1  UNL1       -0.0028
     31 C          10.6726    2.1001    0.0000 C.3     1  UNL1        0.0873
     32 C          10.5987   -0.0135    0.0000 C.3     1  UNL1        0.0560
     33 C          10.2188    3.5071    0.0000 C.3     1  UNL1       -0.0571
     34 C           9.2188    3.4955    0.0000 C.3     1  UNL1       -0.0571
     35 H           6.9329   -0.1160    0.0000 H       1  UNL1        0.0354
     36 H           5.2820   -2.9394    0.0000 H       1  UNL1        0.0312
     37 H           7.2969   -2.6629    0.0000 H       1  UNL1        0.0271
     38 H           7.6880   -1.9670    0.0000 H       1  UNL1        0.0271
     39 H           5.7835   -3.0862    0.0000 H       1  UNL1        0.0268
     40 H           6.5818   -3.0831    0.0000 H       1  UNL1        0.0268
     41 H           4.7681   -0.0171    0.0000 H       1  UNL1        0.0272
     42 H           3.9700   -0.0017    0.0000 H       1  UNL1        0.0272
     43 H           8.4182   -1.5454    0.0000 H       1  UNL1        0.0274
     44 H           9.2164   -1.5546    0.0000 H       1  UNL1        0.0274
     45 H           3.4025   -2.7166    0.0000 H       1  UNL1        0.0599
     46 H           7.2306   -2.2055    0.0000 H       1  UNL1        0.0236
     47 H           8.1041   -2.2820    0.0000 H       1  UNL1        0.0236
     48 H           8.1805   -1.4085    0.0000 H       1  UNL1        0.0236
     49 H           5.6598    0.7690    0.0000 H       1  UNL1        0.0575
     50 H           3.2075   -0.4264    0.0000 H       1  UNL1        0.0290
     51 H           2.8004   -1.1131    0.0000 H       1  UNL1        0.0290
     52 H           5.9145   -0.0526    0.0000 H       1  UNL1        0.0235
     53 H           5.2993    0.5721    0.0000 H       1  UNL1        0.0235
     54 H           4.6745   -0.0431    0.0000 H       1  UNL1        0.0235
     55 H           9.9379   -1.1455    0.0000 H       1  UNL1        0.0275
     56 H          10.3397   -0.4557    0.0000 H       1  UNL1        0.0275
     57 H           7.6884   -1.6927    0.0000 H       1  UNL1        0.0238
     58 H           8.4830   -2.0632    0.0000 H       1  UNL1        0.0238
     59 H           8.8535   -1.2685    0.0000 H       1  UNL1        0.0238
     60 H           7.0628    1.5790    0.0000 H       1  UNL1        0.0617
     61 H          11.2101    1.3241    0.0000 H       1  UNL1        0.0629
     62 H           8.5752    2.6571    0.0000 H       1  UNL1        0.0316
     63 H           8.1894    1.9582    0.0000 H       1  UNL1        0.0316
     64 H           3.3085   -3.1992    0.0000 H       1  UNL1        0.0236
     65 H           3.5387   -4.0452    0.0000 H       1  UNL1        0.0236
     66 H           4.3848   -3.8150    0.0000 H       1  UNL1        0.0236
     67 H           4.3109   -3.8153    0.0000 H       1  UNL1        0.0236
     68 H           5.1587   -4.0390    0.0000 H       1  UNL1        0.0236
     69 H           5.3824   -3.1912    0.0000 H       1  UNL1        0.0236
     70 H          11.2101    1.7911    0.0000 H       1  UNL1        0.0625
     71 H          11.2101   -0.1164    0.0000 H       1  UNL1        0.0567
     72 H          10.8062    0.5708    0.0000 H       1  UNL1        0.0567
     73 H           2.0000   -2.2812    0.0000 H       1  UNL1        0.2098
     74 H          10.7593    3.2033    0.0000 H       1  UNL1        0.0236
     75 H           9.7522    3.8117    0.0000 H       1  UNL1        0.0236
     76 H           8.9027    4.0288    0.0000 H       1  UNL1        0.0236
     77 H           8.6855    3.1793    0.0000 H       1  UNL1        0.0236
     78 H          10.5226    4.0476    0.0000 H       1  UNL1        0.0236
     79 H           9.6783    3.8108    0.0000 H       1  UNL1        0.0236
     80 H          12.0748    0.8197    0.0000 H       1  UNL1        0.2099
     81 H          11.5343    3.2234    0.0000 H       1  UNL1        0.2099
     82 H          11.1457   -1.3193    0.0000 H       1  UNL1        0.2094
@<TRIPOS>BOND
     1    17     1    1
     2     1    73    1
     3    26     2    1
     4     2    80    1
     5    31     3    1
     6     3    81    1
     7     4    32    1
     8     4    82    1
     9     5     7    1
    10     5     9    1
    11     5    10    1
    12     5    18    1
    13     6     7    1
    14     6     8    1
    15     6    13    1
    16     6    22    1
    17     7    19    1
    18     7    35    1
    19     8    11    1
    20     8    12    1
    21     8    36    1
    22     9    14    1
    23     9    15    1
    24     9    24    1
    25    10    12    1
    26    10    37    1
    27    10    38    1
    28    11    17    1
    29    11    28    1
    30    11    29    1
    31    12    39    1
    32    12    40    1
    33    13    21    1
    34    13    41    1
    35    13    42    1
    36    14    20    2
    37    14    25    1
    38    15    23    1
    39    15    43    1
    40    15    44    1
    41    16    20    1
    42    16    23    1
    43    16    26    1
    44    16    32    1
    45    17    21    1
    46    17    45    1
    47    18    46    1
    48    18    47    1
    49    18    48    1
    50    19    25    2
    51    19    49    1
    52    20    27    1
    53    21    50    1
    54    21    51    1
    55    22    52    1
    56    22    53    1
    57    22    54    1
    58    23    55    1
    59    23    56    1
    60    24    57    1
    61    24    58    1
    62    24    59    1
    63    25    60    1
    64    26    31    1
    65    26    61    1
    66    27    30    1
    67    27    62    1
    68    27    63    1
    69    28    64    1
    70    28    65    1
    71    28    66    1
    72    29    67    1
    73    29    68    1
    74    29    69    1
    75    30    31    1
    76    30    33    1
    77    30    34    1
    78    31    70    1
    79    32    71    1
    80    32    72    1
    81    33    74    1
    82    33    78    1
    83    33    79    1
    84    34    75    1
    85    34    76    1
    86    34    77    1
