@<TRIPOS>MOLECULE
IMPHY001427
 52 56 0 0 0
SMALL
GASTEIGER

@<TRIPOS>ATOM
      1 O           6.4814    0.4724    0.0000 O.3     1  UNL1       -0.3608
      2 O           5.4814    2.2045    0.0000 O.3     1  UNL1       -0.4646
      3 O           6.9814    1.3384    0.0000 O.2     1  UNL1       -0.2454
      4 N           2.8393   -1.0344    0.0000 N.3     1  UNL1       -0.2932
      5 N           5.4814   -0.5276    0.0000 N.ar    1  UNL1       -0.3046
      6 C           3.7493    0.4724    0.0000 C.3     1  UNL1       -0.0035
      7 C           3.7493   -0.5276    0.0000 C.3     1  UNL1        0.0570
      8 C           4.6153    0.9724    0.0000 C.3     1  UNL1        0.0139
      9 C           4.6153   -1.0276    0.0000 C.ar    1  UNL1        0.0439
     10 C           2.8911    0.9694    0.0000 C.3     1  UNL1       -0.0443
     11 C           5.4814    0.4724    0.0000 C.3     1  UNL1        0.2438
     12 C           3.7493    1.4724    0.0000 C.3     1  UNL1       -0.0483
     13 C           2.0256    0.4852    0.0000 C.3     1  UNL1       -0.0396
     14 C           2.0000   -0.5062    0.0000 C.3     1  UNL1       -0.0004
     15 C           4.6314   -2.0691    0.0000 C.ar    1  UNL1       -0.0161
     16 C           2.8313   -2.0760    0.0000 C.3     1  UNL1        0.0036
     17 C           3.7334   -2.5968    0.0000 C.3     1  UNL1       -0.0125
     18 C           6.0993   -1.3059    0.0000 C.ar    1  UNL1        0.0525
     19 C           5.6194   -2.1762    0.0000 C.ar    1  UNL1        0.0035
     20 C           2.8833    1.9724    0.0000 C.3     1  UNL1       -0.0647
     21 C           5.9814    1.3384    0.0000 C.2     1  UNL1        0.3607
     22 C           7.1338   -1.2696    0.0000 C.ar    1  UNL1       -0.0375
     23 C           6.1408   -3.0705    0.0000 C.ar    1  UNL1       -0.0523
     24 C           7.6758   -2.1516    0.0000 C.ar    1  UNL1       -0.0598
     25 C           7.1760   -3.0581    0.0000 C.ar    1  UNL1       -0.0611
     26 C           5.9814    3.0705    0.0000 C.3     1  UNL1        0.0818
     27 H           3.7493   -1.3776    0.0000 H       1  UNL1        0.0532
     28 H           5.0139    1.4474    0.0000 H       1  UNL1        0.0323
     29 H           4.2168    1.4474    0.0000 H       1  UNL1        0.0323
     30 H           3.2922    1.4422    0.0000 H       1  UNL1        0.0272
     31 H           2.4971    1.4480    0.0000 H       1  UNL1        0.0272
     32 H           4.3599    1.3648    0.0000 H       1  UNL1        0.0269
     33 H           3.9614    2.0550    0.0000 H       1  UNL1        0.0269
     34 H           1.8239    1.0714    0.0000 H       1  UNL1        0.0278
     35 H           1.4128    0.3908    0.0000 H       1  UNL1        0.0278
     36 H           1.3929   -0.3803    0.0000 H       1  UNL1        0.0427
     37 H           1.7682   -1.0812    0.0000 H       1  UNL1        0.0427
     38 H           2.2213   -1.9652    0.0000 H       1  UNL1        0.0430
     39 H           2.6177   -2.6581    0.0000 H       1  UNL1        0.0430
     40 H           3.3361   -3.0728    0.0000 H       1  UNL1        0.0326
     41 H           4.1343   -3.0697    0.0000 H       1  UNL1        0.0326
     42 H           3.1933    2.5094    0.0000 H       1  UNL1        0.0230
     43 H           2.3464    2.2824    0.0000 H       1  UNL1        0.0230
     44 H           2.5733    1.4355    0.0000 H       1  UNL1        0.0230
     45 H           6.7914   -0.0645    0.0000 H       1  UNL1        0.2128
     46 H           7.4269   -0.7232    0.0000 H       1  UNL1        0.0638
     47 H           5.8352   -3.6099    0.0000 H       1  UNL1        0.0624
     48 H           8.2956   -2.1370    0.0000 H       1  UNL1        0.0618
     49 H           7.4944   -3.5901    0.0000 H       1  UNL1        0.0618
     50 H           6.5183    2.7605    0.0000 H       1  UNL1        0.0661
     51 H           6.2914    3.6074    0.0000 H       1  UNL1        0.0661
     52 H           5.4444    3.3805    0.0000 H       1  UNL1        0.0661
@<TRIPOS>BOND
     1    11     1    1
     2     1    45    1
     3     2    21    1
     4     2    26    1
     5     3    21    2
     6     4     7    1
     7     4    14    1
     8     4    16    1
     9     5     9   ar
    10     5    11    1
    11     5    18   ar
    12     6     7    1
    13     6     8    1
    14     6    10    1
    15     6    12    1
    16     7     9    1
    17     7    27    1
    18     8    11    1
    19     8    28    1
    20     8    29    1
    21     9    15   ar
    22    10    13    1
    23    10    30    1
    24    10    31    1
    25    11    21    1
    26    12    20    1
    27    12    32    1
    28    12    33    1
    29    13    14    1
    30    13    34    1
    31    13    35    1
    32    14    36    1
    33    14    37    1
    34    15    17    1
    35    15    19   ar
    36    16    17    1
    37    16    38    1
    38    16    39    1
    39    17    40    1
    40    17    41    1
    41    18    19   ar
    42    18    22   ar
    43    19    23   ar
    44    20    42    1
    45    20    43    1
    46    20    44    1
    47    22    24   ar
    48    22    46    1
    49    23    25   ar
    50    23    47    1
    51    24    25   ar
    52    24    48    1
    53    25    49    1
    54    26    50    1
    55    26    51    1
    56    26    52    1
