@<TRIPOS>MOLECULE
IMPHY017068
 21 21 0 0 0
SMALL
GASTEIGER

@<TRIPOS>ATOM
      1 O           2.0000    1.7500    0.0000 O.2     1  UNL1       -0.2927
      2 C           2.0000   -1.2500    0.0000 C.3     1  UNL1       -0.0487
      3 C           2.8660   -1.7500    0.0000 C.3     1  UNL1       -0.0493
      4 C           2.0000   -0.2500    0.0000 C.3     1  UNL1       -0.0247
      5 C           3.7320   -1.2500    0.0000 C.3     1  UNL1       -0.0341
      6 C           2.8660    0.2500    0.0000 C.2     1  UNL1       -0.0092
      7 C           3.7320   -0.2500    0.0000 C.2     1  UNL1       -0.0775
      8 C           2.8660    1.2500    0.0000 C.2     1  UNL1        0.1559
      9 C           3.7320    1.7500    0.0000 C.3     1  UNL1       -0.0017
     10 H           1.3894   -1.1423    0.0000 H       1  UNL1        0.0268
     11 H           1.7880   -1.8326    0.0000 H       1  UNL1        0.0268
     12 H           2.4675   -2.2250    0.0000 H       1  UNL1        0.0268
     13 H           3.2646   -2.2250    0.0000 H       1  UNL1        0.0268
     14 H           1.7880    0.3326    0.0000 H       1  UNL1        0.0314
     15 H           1.3894   -0.3577    0.0000 H       1  UNL1        0.0314
     16 H           3.9441   -1.8326    0.0000 H       1  UNL1        0.0308
     17 H           4.3426   -1.1423    0.0000 H       1  UNL1        0.0308
     18 H           4.2690    0.0600    0.0000 H       1  UNL1        0.0576
     19 H           4.0420    1.2131    0.0000 H       1  UNL1        0.0309
     20 H           4.2690    2.0600    0.0000 H       1  UNL1        0.0309
     21 H           3.4220    2.2869    0.0000 H       1  UNL1        0.0309
@<TRIPOS>BOND
     1     1     8    2
     2     2     3    1
     3     2     4    1
     4     2    10    1
     5     2    11    1
     6     3     5    1
     7     3    12    1
     8     3    13    1
     9     4     6    1
    10     4    14    1
    11     4    15    1
    12     5     7    1
    13     5    16    1
    14     5    17    1
    15     6     7    2
    16     6     8    1
    17     7    18    1
    18     8     9    1
    19     9    19    1
    20     9    20    1
    21     9    21    1
