@<TRIPOS>MOLECULE
IMPHY004731
 41 44 0 0 0
SMALL
GASTEIGER

@<TRIPOS>ATOM
      1 O           5.9065   -1.1814    0.0000 O.2     1  UNL1       -0.4537
      2 O           8.0505    0.8871    0.0000 O.2     1  UNL1       -0.4211
      3 O          10.6901   -1.4571    0.0000 O.3     1  UNL1       -0.5064
      4 O           6.7634    2.0460    0.0000 O.2     1  UNL1       -0.2444
      5 O           2.4170   -0.2772    0.0000 O.3     1  UNL1       -0.5066
      6 C           7.6904   -0.8071    0.0000 C.ar    1  UNL1        0.0610
      7 C           6.7123   -0.5992    0.0000 C.ar    1  UNL1        0.1538
      8 C           6.4033    0.3518    0.0000 C.ar    1  UNL1        0.1128
      9 C           8.3596   -0.0640    0.0000 C.ar    1  UNL1        0.1495
     10 C           9.3816   -0.2648    0.0000 C.ar    1  UNL1        0.0407
     11 C           5.4092    0.3492    0.0000 C.ar    1  UNL1        0.0351
     12 C           5.1028   -0.5964    0.0000 C.ar    1  UNL1        0.1400
     13 C          10.0421    0.4860    0.0000 C.3     1  UNL1       -0.0023
     14 C           7.9970   -1.8026    0.0000 C.ar    1  UNL1       -0.0440
     15 C           7.0724    1.0950    0.0000 C.ar    1  UNL1        0.3488
     16 C           9.7112   -1.2530    0.0000 C.ar    1  UNL1        0.1239
     17 C           9.0142   -2.0271    0.0000 C.ar    1  UNL1       -0.0190
     18 C           4.7276    1.1287    0.0000 C.ar    1  UNL1       -0.0467
     19 C           4.0936   -0.8282    0.0000 C.ar    1  UNL1        0.0228
     20 C          11.0226    0.2894    0.0000 C.2     1  UNL1       -0.0807
     21 C           3.7133    0.9204    0.0000 C.ar    1  UNL1       -0.0194
     22 C           3.3942   -0.0647    0.0000 C.ar    1  UNL1        0.1204
     23 C          11.6831    1.0402    0.0000 C.2     1  UNL1       -0.0793
     24 C          12.6636    0.8437    0.0000 C.3     1  UNL1       -0.0440
     25 C          11.3631    1.9877    0.0000 C.3     1  UNL1       -0.0440
     26 H          10.2677    1.0635    0.0000 H       1  UNL1        0.0358
     27 H           9.5126    0.8084    0.0000 H       1  UNL1        0.0358
     28 H           7.5768   -2.2586    0.0000 H       1  UNL1        0.0627
     29 H           9.2035   -2.6174    0.0000 H       1  UNL1        0.0654
     30 H           4.9255    1.7163    0.0000 H       1  UNL1        0.0626
     31 H           3.9094   -1.4202    0.0000 H       1  UNL1        0.0691
     32 H          11.2210   -0.2980    0.0000 H       1  UNL1        0.0575
     33 H           3.2998    1.3824    0.0000 H       1  UNL1        0.0654
     34 H          10.8840   -2.0460    0.0000 H       1  UNL1        0.2921
     35 H          12.5417    0.2358    0.0000 H       1  UNL1        0.0274
     36 H          13.2715    0.7218    0.0000 H       1  UNL1        0.0274
     37 H          11.9505    2.1861    0.0000 H       1  UNL1        0.0274
     38 H          11.1647    2.5751    0.0000 H       1  UNL1        0.0274
     39 H          10.7757    1.7893    0.0000 H       1  UNL1        0.0274
     40 H          12.7855    1.4516    0.0000 H       1  UNL1        0.0274
     41 H           2.0000    0.1816    0.0000 H       1  UNL1        0.2921
@<TRIPOS>BOND
     1     1     7   ar
     2     1    12   ar
     3     2     9   ar
     4     2    15   ar
     5     3    16    1
     6     3    34    1
     7     4    15    2
     8     5    22    1
     9     5    41    1
    10     6     7   ar
    11     6     9   ar
    12     6    14   ar
    13     7     8   ar
    14     8    11   ar
    15     8    15   ar
    16     9    10   ar
    17    10    13    1
    18    10    16   ar
    19    11    12   ar
    20    11    18   ar
    21    12    19   ar
    22    13    20    1
    23    13    26    1
    24    13    27    1
    25    14    17   ar
    26    14    28    1
    27    16    17   ar
    28    17    29    1
    29    18    21   ar
    30    18    30    1
    31    19    22   ar
    32    19    31    1
    33    20    23    2
    34    20    32    1
    35    21    22   ar
    36    21    33    1
    37    23    24    1
    38    23    25    1
    39    24    35    1
    40    24    36    1
    41    24    40    1
    42    25    37    1
    43    25    38    1
    44    25    39    1
