@<TRIPOS>MOLECULE
IMPHY017526
 30 29 0 0 0
SMALL
GASTEIGER

@<TRIPOS>ATOM
      1 O           2.5369    1.0950    0.0000 O.2     1  UNL1       -0.4093
      2 N           2.5369    0.0950    0.0000 N.2     1  UNL1       -0.0968
      3 C           6.0010    0.0950    0.0000 C.3     1  UNL1       -0.0527
      4 C           6.8671   -0.4050    0.0000 C.3     1  UNL1       -0.0531
      5 C           5.1350   -0.4050    0.0000 C.3     1  UNL1       -0.0479
      6 C           7.7331    0.0950    0.0000 C.3     1  UNL1       -0.0533
      7 C           4.2690    0.0950    0.0000 C.3     1  UNL1       -0.0115
      8 C           8.5991   -0.4050    0.0000 C.3     1  UNL1       -0.0559
      9 C           3.4030   -0.4050    0.0000 C.2     1  UNL1        0.0544
     10 C           9.4651    0.0950    0.0000 C.3     1  UNL1       -0.0653
     11 C           3.4030   -1.4050    0.0000 C.3     1  UNL1       -0.0231
     12 H           6.3996    0.5699    0.0000 H       1  UNL1        0.0265
     13 H           5.6025    0.5699    0.0000 H       1  UNL1        0.0265
     14 H           6.4685   -0.8799    0.0000 H       1  UNL1        0.0265
     15 H           7.2656   -0.8799    0.0000 H       1  UNL1        0.0265
     16 H           4.7365   -0.8799    0.0000 H       1  UNL1        0.0269
     17 H           5.5335   -0.8799    0.0000 H       1  UNL1        0.0269
     18 H           8.1316    0.5699    0.0000 H       1  UNL1        0.0265
     19 H           7.3346    0.5699    0.0000 H       1  UNL1        0.0265
     20 H           4.6675    0.5699    0.0000 H       1  UNL1        0.0326
     21 H           3.8705    0.5699    0.0000 H       1  UNL1        0.0326
     22 H           8.2006   -0.8799    0.0000 H       1  UNL1        0.0263
     23 H           8.9976   -0.8799    0.0000 H       1  UNL1        0.0263
     24 H           9.7751   -0.4419    0.0000 H       1  UNL1        0.0230
     25 H          10.0021    0.4050    0.0000 H       1  UNL1        0.0230
     26 H           9.1551    0.6319    0.0000 H       1  UNL1        0.0230
     27 H           2.7830   -1.4050    0.0000 H       1  UNL1        0.0290
     28 H           3.4030   -2.0250    0.0000 H       1  UNL1        0.0290
     29 H           4.0230   -1.4050    0.0000 H       1  UNL1        0.0290
     30 H           2.0000    1.4050    0.0000 H       1  UNL1        0.3278
@<TRIPOS>BOND
     1     1     2    1
     2     1    30    1
     3     2     9    2
     4     3     4    1
     5     3     5    1
     6     3    12    1
     7     3    13    1
     8     4     6    1
     9     4    14    1
    10     4    15    1
    11     5     7    1
    12     5    16    1
    13     5    17    1
    14     6     8    1
    15     6    18    1
    16     6    19    1
    17     7     9    1
    18     7    20    1
    19     7    21    1
    20     8    10    1
    21     8    22    1
    22     8    23    1
    23     9    11    1
    24    10    24    1
    25    10    25    1
    26    10    26    1
    27    11    27    1
    28    11    28    1
    29    11    29    1
