@<TRIPOS>MOLECULE
IMPHY010130
 21 21 0 0 0
SMALL
GASTEIGER

@<TRIPOS>ATOM
      1 O           3.7601   -0.6075    0.0000 O.2     1  UNL1       -0.4606
      2 O           7.4223   -0.9468    0.0000 O.2     1  UNL1       -0.2930
      3 C           4.5691   -0.0198    0.0000 C.ar    1  UNL1        0.1282
      4 C           2.9511   -0.0198    0.0000 C.ar    1  UNL1        0.1027
      5 C           4.2601    0.9313    0.0000 C.ar    1  UNL1       -0.0162
      6 C           3.2601    0.9313    0.0000 C.ar    1  UNL1       -0.0204
      7 C           5.5202   -0.3288    0.0000 C.2     1  UNL1       -0.0161
      8 C           2.0000   -0.3288    0.0000 C.3     1  UNL1       -0.0063
      9 C           6.2633    0.3404    0.0000 C.2     1  UNL1       -0.0160
     10 C           7.2144    0.0313    0.0000 C.2     1  UNL1        0.1532
     11 C           7.9575    0.7005    0.0000 C.3     1  UNL1       -0.0020
     12 H           4.6245    1.4329    0.0000 H       1  UNL1        0.0655
     13 H           2.8956    1.4329    0.0000 H       1  UNL1        0.0652
     14 H           5.6490   -0.9352    0.0000 H       1  UNL1        0.0655
     15 H           1.8084    0.2609    0.0000 H       1  UNL1        0.0308
     16 H           1.4103   -0.5204    0.0000 H       1  UNL1        0.0308
     17 H           2.1916   -0.9184    0.0000 H       1  UNL1        0.0308
     18 H           6.1344    0.9468    0.0000 H       1  UNL1        0.0653
     19 H           8.3724    0.2397    0.0000 H       1  UNL1        0.0309
     20 H           8.4182    1.1153    0.0000 H       1  UNL1        0.0309
     21 H           7.5426    1.1612    0.0000 H       1  UNL1        0.0309
@<TRIPOS>BOND
     1     1     3   ar
     2     1     4   ar
     3     2    10    2
     4     3     5   ar
     5     3     7    1
     6     4     6   ar
     7     4     8    1
     8     5     6   ar
     9     5    12    1
    10     6    13    1
    11     7     9    2
    12     7    14    1
    13     8    15    1
    14     8    16    1
    15     8    17    1
    16     9    10    1
    17     9    18    1
    18    10    11    1
    19    11    19    1
    20    11    20    1
    21    11    21    1
