@<TRIPOS>MOLECULE
IMPHY006999
 67 71 0 0 0
SMALL
GASTEIGER

@<TRIPOS>ATOM
      1 O           5.9860    0.5419    0.0000 O.3     1  UNL1       -0.3289
      2 O           6.8680   -1.9996    0.0000 O.3     1  UNL1       -0.4524
      3 O           8.6382   -1.0027    0.0000 O.3     1  UNL1       -0.3852
      4 O           8.6540    1.0455    0.0000 O.3     1  UNL1       -0.3829
      5 O           6.8802    2.0697    0.0000 O.3     1  UNL1       -0.4287
      6 O           4.8772   -1.9655    0.0000 O.3     1  UNL1       -0.4584
      7 O           5.8477   -3.6798    0.0000 O.2     1  UNL1       -0.2449
      8 O           5.1481    2.0630    0.0000 O.2     1  UNL1       -0.2449
      9 O           5.8772   -1.9655    0.0000 O.2     1  UNL1       -0.2449
     10 O           6.3741   -6.3338    0.0000 O.3     1  UNL1       -0.5028
     11 O           5.3803   -6.3338    0.0000 O.3     1  UNL1       -0.5028
     12 O           9.4464   -4.5757    0.0000 O.3     1  UNL1       -0.5032
     13 O           8.4223   -6.3496    0.0000 O.3     1  UNL1       -0.5009
     14 O           3.3321   -6.3496    0.0000 O.3     1  UNL1       -0.5009
     15 O           2.3079   -4.5757    0.0000 O.3     1  UNL1       -0.5032
     16 O           4.2686    5.5597    0.0000 O.3     1  UNL1       -0.5032
     17 O           7.7327    5.5730    0.0000 O.3     1  UNL1       -0.5032
     18 O           5.9968    6.5663    0.0000 O.3     1  UNL1       -0.5009
     19 C           6.8680   -0.9996    0.0000 C.3     1  UNL1        0.1609
     20 C           7.7780   -0.4927    0.0000 C.3     1  UNL1        0.1262
     21 C           6.0020   -0.4996    0.0000 C.3     1  UNL1        0.1360
     22 C           7.7861    0.5489    0.0000 C.3     1  UNL1        0.1466
     23 C           6.8840    1.0697    0.0000 C.3     1  UNL1        0.2342
     24 C           5.1360   -0.9996    0.0000 C.3     1  UNL1        0.1226
     25 C           6.3772   -2.8315    0.0000 C.2     1  UNL1        0.3404
     26 C           6.8772   -3.6976    0.0000 C.ar    1  UNL1        0.0740
     27 C           6.3772   -4.5636    0.0000 C.ar    1  UNL1        0.0458
     28 C           6.0122    2.5663    0.0000 C.2     1  UNL1        0.3417
     29 C           5.3772   -2.8315    0.0000 C.2     1  UNL1        0.3401
     30 C           5.3772   -4.5636    0.0000 C.ar    1  UNL1        0.0458
     31 C           4.8772   -3.6976    0.0000 C.ar    1  UNL1        0.0740
     32 C           7.9187   -3.6815    0.0000 C.ar    1  UNL1       -0.0017
     33 C           6.8840   -5.4736    0.0000 C.ar    1  UNL1        0.1708
     34 C           6.0084    3.5663    0.0000 C.ar    1  UNL1        0.0662
     35 C           4.8703   -5.4736    0.0000 C.ar    1  UNL1        0.1708
     36 C           3.8357   -3.6815    0.0000 C.ar    1  UNL1       -0.0017
     37 C           8.4464   -4.5795    0.0000 C.ar    1  UNL1        0.1628
     38 C           7.9256   -5.4816    0.0000 C.ar    1  UNL1        0.2012
     39 C           3.8287   -5.4816    0.0000 C.ar    1  UNL1        0.2012
     40 C           3.3079   -4.5795    0.0000 C.ar    1  UNL1        0.1628
     41 C           6.8724    4.0697    0.0000 C.ar    1  UNL1       -0.0023
     42 C           5.1404    4.0630    0.0000 C.ar    1  UNL1       -0.0023
     43 C           5.1366    5.0630    0.0000 C.ar    1  UNL1        0.1628
     44 C           6.8686    5.0697    0.0000 C.ar    1  UNL1        0.1628
     45 C           6.0006    5.5663    0.0000 C.ar    1  UNL1        0.2006
     46 H           7.6009   -1.4302    0.0000 H       1  UNL1        0.0789
     47 H           7.7697   -1.1127    0.0000 H       1  UNL1        0.0659
     48 H           5.2626   -0.0803    0.0000 H       1  UNL1        0.0670
     49 H           8.3212    0.2358    0.0000 H       1  UNL1        0.0683
     50 H           7.4203    1.3807    0.0000 H       1  UNL1        0.1085
     51 H           4.9755   -0.4007    0.0000 H       1  UNL1        0.0725
     52 H           4.5160   -0.9996    0.0000 H       1  UNL1        0.0725
     53 H           9.1787   -0.6989    0.0000 H       1  UNL1        0.2101
     54 H           8.6564    1.6655    0.0000 H       1  UNL1        0.2102
     55 H           8.2225   -3.1410    0.0000 H       1  UNL1        0.0664
     56 H           3.5319   -3.1410    0.0000 H       1  UNL1        0.0664
     57 H           7.4106    3.7617    0.0000 H       1  UNL1        0.0663
     58 H           4.6047    3.7509    0.0000 H       1  UNL1        0.0663
     59 H           6.6778   -6.8742    0.0000 H       1  UNL1        0.2923
     60 H           5.0766   -6.8742    0.0000 H       1  UNL1        0.2923
     61 H           9.7544   -4.0375    0.0000 H       1  UNL1        0.2923
     62 H           9.0423   -6.3519    0.0000 H       1  UNL1        0.2924
     63 H           2.7121   -6.3519    0.0000 H       1  UNL1        0.2924
     64 H           2.0000   -4.0375    0.0000 H       1  UNL1        0.2923
     65 H           3.7329    5.2476    0.0000 H       1  UNL1        0.2923
     66 H           8.2708    5.2651    0.0000 H       1  UNL1        0.2923
     67 H           5.4587    6.8742    0.0000 H       1  UNL1        0.2924
@<TRIPOS>BOND
     1     1    21    1
     2     1    23    1
     3     2    19    1
     4     2    25    1
     5    20     3    1
     6     3    53    1
     7    22     4    1
     8     4    54    1
     9    23     5    1
    10     5    28    1
    11     6    24    1
    12     6    29    1
    13     7    25    2
    14     8    28    2
    15     9    29    2
    16    10    33    1
    17    10    59    1
    18    11    35    1
    19    11    60    1
    20    12    37    1
    21    12    61    1
    22    13    38    1
    23    13    62    1
    24    14    39    1
    25    14    63    1
    26    15    40    1
    27    15    64    1
    28    16    43    1
    29    16    65    1
    30    17    44    1
    31    17    66    1
    32    18    45    1
    33    18    67    1
    34    19    20    1
    35    19    21    1
    36    19    46    1
    37    20    22    1
    38    20    47    1
    39    21    24    1
    40    21    48    1
    41    22    23    1
    42    22    49    1
    43    23    50    1
    44    24    51    1
    45    24    52    1
    46    25    26    1
    47    26    27   ar
    48    26    32   ar
    49    27    30    1
    50    27    33   ar
    51    28    34    1
    52    29    31    1
    53    30    31   ar
    54    30    35   ar
    55    31    36   ar
    56    32    37   ar
    57    32    55    1
    58    33    38   ar
    59    34    41   ar
    60    34    42   ar
    61    35    39   ar
    62    36    40   ar
    63    36    56    1
    64    37    38   ar
    65    39    40   ar
    66    41    44   ar
    67    41    57    1
    68    42    43   ar
    69    42    58    1
    70    43    45   ar
    71    44    45   ar
