@<TRIPOS>MOLECULE
IMPHY001865
 18 18 0 0 0
SMALL
GASTEIGER

@<TRIPOS>ATOM
      1 O           2.0000   -1.2500    0.0000 O.3     1  UNL1       -0.4951
      2 O           4.5981    2.2500    0.0000 O.2     1  UNL1       -0.2957
      3 C           2.8660   -0.7500    0.0000 C.ar    1  UNL1        0.1208
      4 C           3.7320    0.7500    0.0000 C.ar    1  UNL1        0.0176
      5 C           2.8660    0.2500    0.0000 C.ar    1  UNL1       -0.0098
      6 C           3.7320   -1.2500    0.0000 C.ar    1  UNL1       -0.0199
      7 C           4.5981    0.2500    0.0000 C.ar    1  UNL1       -0.0513
      8 C           4.5981   -0.7500    0.0000 C.ar    1  UNL1       -0.0577
      9 C           3.7320    1.7500    0.0000 C.2     1  UNL1        0.1503
     10 C           2.0000   -2.2500    0.0000 C.3     1  UNL1        0.0788
     11 H           2.3291    0.5600    0.0000 H       1  UNL1        0.0661
     12 H           3.7320   -1.8700    0.0000 H       1  UNL1        0.0654
     13 H           5.1350    0.5600    0.0000 H       1  UNL1        0.0624
     14 H           5.1350   -1.0600    0.0000 H       1  UNL1        0.0619
     15 H           3.1951    2.0600    0.0000 H       1  UNL1        0.1081
     16 H           1.3800   -2.2500    0.0000 H       1  UNL1        0.0660
     17 H           2.0000   -2.8700    0.0000 H       1  UNL1        0.0660
     18 H           2.6200   -2.2500    0.0000 H       1  UNL1        0.0660
@<TRIPOS>BOND
     1     1     3    1
     2     1    10    1
     3     2     9    2
     4     3     5   ar
     5     3     6   ar
     6     4     5   ar
     7     4     7   ar
     8     4     9    1
     9     5    11    1
    10     6     8   ar
    11     6    12    1
    12     7     8   ar
    13     7    13    1
    14     8    14    1
    15     9    15    1
    16    10    16    1
    17    10    17    1
    18    10    18    1
