@<TRIPOS>MOLECULE
IMPHY008842
 34 38 0 0 0
SMALL
GASTEIGER

@<TRIPOS>ATOM
      1 O          11.1246    2.8304    0.0000 O.2     1  UNL1       -0.2914
      2 C           6.6507   -0.8139    0.0000 C.3     1  UNL1       -0.0036
      3 C           5.7847   -0.3139    0.0000 C.3     1  UNL1       -0.0036
      4 C           7.5167   -0.3139    0.0000 C.3     1  UNL1       -0.0190
      5 C           7.5167    0.6861    0.0000 C.3     1  UNL1       -0.0033
      6 C           4.8747   -0.8208    0.0000 C.3     1  UNL1       -0.0191
      7 C           4.8666   -1.8624    0.0000 C.3     1  UNL1       -0.0034
      8 C           5.7847    0.6861    0.0000 C.3     1  UNL1       -0.0003
      9 C           6.6667   -1.8554    0.0000 C.3     1  UNL1       -0.0003
     10 C           6.6507    1.1861    0.0000 C.3     1  UNL1       -0.0003
     11 C           8.4106    1.2207    0.0000 C.3     1  UNL1       -0.0001
     12 C           5.7687   -2.3832    0.0000 C.3     1  UNL1       -0.0003
     13 C           8.4106   -0.8486    0.0000 C.3     1  UNL1       -0.0039
     14 C           9.3167    0.7069    0.0000 C.3     1  UNL1        0.0069
     15 C           3.9478   -0.2567    0.0000 C.3     1  UNL1       -0.0039
     16 C           7.5167   -1.3139    0.0000 C.3     1  UNL1       -0.0003
     17 C           9.3167   -0.3348    0.0000 C.3     1  UNL1        0.0001
     18 C           4.9186    0.1861    0.0000 C.3     1  UNL1       -0.0003
     19 C           3.9312   -2.4121    0.0000 C.3     1  UNL1       -0.0003
     20 C           2.9999   -0.7846    0.0000 C.3     1  UNL1       -0.0003
     21 C           7.5167    1.6861    0.0000 C.3     1  UNL1       -0.0003
     22 C           2.9916   -1.8696    0.0000 C.3     1  UNL1       -0.0000
     23 C           4.8589   -2.8624    0.0000 C.3     1  UNL1       -0.0003
     24 C          10.2605    1.2421    0.0000 C.3     1  UNL1        0.0619
     25 C           8.3856    2.3054    0.0000 C.2     1  UNL1       -0.0278
     26 C          10.1866    0.2136    0.0000 C.3     1  UNL1        0.0004
     27 C           2.5100    0.0871    0.0000 C.3     1  UNL1       -0.0000
     28 C           2.0000   -0.7731    0.0000 C.3     1  UNL1       -0.0000
     29 C          10.2605    2.3271    0.0000 C.2     1  UNL1        0.1724
     30 C           9.3167    2.8624    0.0000 C.2     1  UNL1        0.0325
     31 C          11.1246    0.7388    0.0000 C.3     1  UNL1        0.0081
     32 H           7.5105   -1.1139    0.0000 H       1  UNL1        0.0318
     33 H           4.8901   -0.0209    0.0000 H       1  UNL1        0.0318
     34 H           9.0972    1.6314    0.0000 H       1  UNL1        0.0361
@<TRIPOS>BOND
     1     1    29    2
     2     2     3    1
     3     2     4    1
     4     2     9    1
     5     2    16    1
     6     3     6    1
     7     3     8    1
     8     3    18    1
     9     4     5    1
    10     4    13    1
    11     4    32    1
    12     5    10    1
    13     5    11    1
    14     5    21    1
    15     6     7    1
    16     6    15    1
    17     6    33    1
    18     7    12    1
    19     7    19    1
    20     7    23    1
    21     8    10    1
    22     9    12    1
    23    11    14    1
    24    11    25    1
    25    11    34    1
    26    13    17    1
    27    14    17    1
    28    14    24    1
    29    14    26    1
    30    15    20    1
    31    19    22    1
    32    20    22    1
    33    20    27    1
    34    20    28    1
    35    24    29    1
    36    24    31    1
    37    25    30    2
    38    29    30    1
