@<TRIPOS>MOLECULE
IMPHY012657
 42 44 0 0 0
SMALL
GASTEIGER

@<TRIPOS>ATOM
      1 O           3.1708   -0.2163    0.0000 O.3     1  UNL1       -0.3654
      2 O           4.7198   -1.0486    0.0000 O.3     1  UNL1       -0.4214
      3 O           2.9500   -1.0108    0.0000 O.3     1  UNL1       -0.4218
      4 O           6.4898   -1.0244    0.0000 O.2     1  UNL1       -0.2504
      5 O           3.7987   -2.5207    0.0000 O.2     1  UNL1       -0.2511
      6 C           3.8378    0.5207    0.0000 C.3     1  UNL1        0.1495
      7 C           2.9718    1.0207    0.0000 C.3     1  UNL1        0.0001
      8 C           4.7039    1.0207    0.0000 C.3     1  UNL1        0.0081
      9 C           2.9718    2.0207    0.0000 C.3     1  UNL1       -0.0381
     10 C           4.7039    2.0207    0.0000 C.3     1  UNL1       -0.0463
     11 C           2.0000    0.8115    0.0000 C.3     1  UNL1       -0.0235
     12 C           3.8378    2.5207    0.0000 C.3     1  UNL1       -0.0497
     13 C           3.8218   -0.5208    0.0000 C.3     1  UNL1        0.2780
     14 C           5.6139    0.5138    0.0000 C.3     1  UNL1        0.0594
     15 C           2.0800    0.0058    0.0000 C.3     1  UNL1        0.0491
     16 C           2.1058    2.5207    0.0000 C.3     1  UNL1       -0.0621
     17 C           5.6219   -0.5278    0.0000 C.2     1  UNL1        0.3133
     18 C           6.4740    1.0238    0.0000 C.3     1  UNL1       -0.0519
     19 C           2.9385   -2.0107    0.0000 C.2     1  UNL1        0.3069
     20 C           2.0667   -2.5007    0.0000 C.3     1  UNL1        0.0333
     21 H           2.3106    1.5548    0.0000 H       1  UNL1        0.0334
     22 H           5.4367    1.4514    0.0000 H       1  UNL1        0.0339
     23 H           2.9718    2.6407    0.0000 H       1  UNL1        0.0302
     24 H           5.3144    1.9130    0.0000 H       1  UNL1        0.0269
     25 H           4.9159    2.6033    0.0000 H       1  UNL1        0.0269
     26 H           1.8925    1.4221    0.0000 H       1  UNL1        0.0291
     27 H           1.3858    0.7270    0.0000 H       1  UNL1        0.0291
     28 H           4.2364    2.9956    0.0000 H       1  UNL1        0.0268
     29 H           3.4393    2.9956    0.0000 H       1  UNL1        0.0268
     30 H           3.8158   -1.1408    0.0000 H       1  UNL1        0.1238
     31 H           6.1538    0.2090    0.0000 H       1  UNL1        0.0414
     32 H           1.4600    0.0064    0.0000 H       1  UNL1        0.0560
     33 H           2.0175   -0.6111    0.0000 H       1  UNL1        0.0560
     34 H           2.4158    3.0576    0.0000 H       1  UNL1        0.0233
     35 H           1.5689    2.8307    0.0000 H       1  UNL1        0.0233
     36 H           1.7958    1.9838    0.0000 H       1  UNL1        0.0233
     37 H           6.7902    0.4905    0.0000 H       1  UNL1        0.0238
     38 H           7.0074    1.3400    0.0000 H       1  UNL1        0.0238
     39 H           6.1579    1.5571    0.0000 H       1  UNL1        0.0238
     40 H           1.7630   -1.9602    0.0000 H       1  UNL1        0.0342
     41 H           1.5262   -2.8044    0.0000 H       1  UNL1        0.0342
     42 H           2.3705   -3.0411    0.0000 H       1  UNL1        0.0342
@<TRIPOS>BOND
     1     6     1    1
     2     1    15    1
     3     2    13    1
     4     2    17    1
     5    13     3    1
     6     3    19    1
     7     4    17    2
     8     5    19    2
     9     6     7    1
    10     6     8    1
    11     6    13    1
    12     7     9    1
    13     7    11    1
    14     7    21    1
    15     8    10    1
    16     8    14    1
    17     8    22    1
    18     9    12    1
    19     9    16    1
    20     9    23    1
    21    10    12    1
    22    10    24    1
    23    10    25    1
    24    11    15    1
    25    11    26    1
    26    11    27    1
    27    12    28    1
    28    12    29    1
    29    13    30    1
    30    14    17    1
    31    14    18    1
    32    14    31    1
    33    15    32    1
    34    15    33    1
    35    16    34    1
    36    16    35    1
    37    16    36    1
    38    18    37    1
    39    18    38    1
    40    18    39    1
    41    19    20    1
    42    20    40    1
    43    20    41    1
    44    20    42    1
