@<TRIPOS>MOLECULE
IMPHY000667
 56 62 0 0 0
SMALL
GASTEIGER

@<TRIPOS>ATOM
      1 C        2433.0500 2350.0200    0.0000 C.3     1  UNL1        0.0003
      2 C        2433.0500 2390.0200    0.0000 C.3     1  UNL1        0.0035
      3 C        2433.0500 2430.3200    0.0000 C.3     1  UNL1        0.0046
      4 C        2467.5900 2450.4700    0.0000 C.3     1  UNL1        0.0006
      5 C        2467.5900 2410.4700    0.0000 C.3     1  UNL1        0.0000
      6 C        2502.1300 2430.3200    0.0000 C.3     1  UNL1        0.0047
      7 C        2502.1300 2390.0200    0.0000 C.3     1  UNL1        0.0002
      8 C        2467.5900 2369.8800    0.0000 C.3     1  UNL1        0.0003
      9 C        2536.6700 2450.4700    0.0000 C.3     1  UNL1        0.0557
     10 C        2571.6100 2431.1200    0.0000 C.3     1  UNL1        0.1843
     11 O        2571.6100 2391.1200    0.0000 O.3     1  UNL1       -0.2203
     12 C        2536.6700 2410.4700    0.0000 C.3     1  UNL1        0.0050
     13 C        2536.6700 2490.7700    0.0000 C.3     1  UNL1        0.1202
     14 C        2502.1300 2511.0200    0.0000 C.3     1  UNL1        0.0297
     15 C        2467.5900 2490.7700    0.0000 C.3     1  UNL1        0.0025
     16 O        2571.3200 2510.8200    0.0000 O.3     1  UNL1       -0.3311
     17 C        2605.9600 2490.7700    0.0000 C.3     1  UNL1        0.2661
     18 C        2640.6000 2510.8200    0.0000 C.3     1  UNL1        0.2066
     19 O        2640.5000 2590.5200    0.0000 O.3     1  UNL1       -0.3231
     20 C        2675.1400 2610.4700    0.0000 C.3     1  UNL1        0.2696
     21 O        2675.1400 2650.4700    0.0000 O.3     1  UNL1       -0.3256
     22 C        2709.7800 2670.5200    0.0000 C.3     1  UNL1        0.1835
     23 C        2709.7800 2710.5200    0.0000 C.3     1  UNL1        0.2142
     24 O        2744.4200 2730.4700    0.0000 O.3     1  UNL1       -0.2176
     25 C        2744.5200 2650.4700    0.0000 C.3     1  UNL1        0.2144
     26 C        2744.5200 2610.4700    0.0000 C.3     1  UNL1        0.2198
     27 C        2709.7800 2590.5200    0.0000 C.3     1  UNL1        0.2406
     28 O        2709.7800 2550.5200    0.0000 O.3     1  UNL1       -0.2149
     29 O        2779.1600 2590.5200    0.0000 O.3     1  UNL1       -0.2174
     30 O        2779.1600 2670.5200    0.0000 O.3     1  UNL1       -0.2176
     31 C        2675.2400 2490.7700    0.0000 C.3     1  UNL1        0.2166
     32 O        2709.8800 2510.8200    0.0000 O.3     1  UNL1       -0.2175
     33 C        2675.2400 2450.7700    0.0000 C.3     1  UNL1        0.2143
     34 C        2640.6000 2430.8200    0.0000 C.3     1  UNL1        0.1835
     35 O        2605.9600 2450.7700    0.0000 O.3     1  UNL1       -0.3257
     36 C        2640.6000 2390.8200    0.0000 C.3     1  UNL1        0.2142
     37 O        2675.2400 2370.7700    0.0000 O.3     1  UNL1       -0.2176
     38 O        2709.8800 2430.8200    0.0000 O.3     1  UNL1       -0.2176
     39 C        2398.5100 2450.4700    0.0000 C.3     1  UNL1        0.0254
     40 C        2363.8700 2430.3200    0.0000 C.2     1  UNL1       -0.0346
     41 C        2363.8700 2390.0200    0.0000 C.2     1  UNL1       -0.0489
     42 C        2398.5100 2369.8800    0.0000 C.3     1  UNL1        0.0149
     43 C        2398.5100 2409.8800    0.0000 C.3     1  UNL1        0.0040
     44 C        2398.5100 2329.5800    0.0000 C.3     1  UNL1        0.0043
     45 C        2363.8700 2309.3300    0.0000 C.3     1  UNL1        0.0113
     46 C        2329.3300 2329.5800    0.0000 C.3     1  UNL1        0.0972
     47 C        2329.3300 2369.8800    0.0000 C.3     1  UNL1        0.0281
     48 C        2294.7900 2390.0200    0.0000 C.3     1  UNL1        0.0046
     49 C        2260.2500 2369.8800    0.0000 C.3     1  UNL1        0.0003
     50 C        2260.2500 2329.5800    0.0000 C.3     1  UNL1        0.0006
     51 C        2294.7900 2309.3300    0.0000 C.3     1  UNL1        0.0110
     52 C        2246.5500 2407.4900    0.0000 C.3     1  UNL1        0.0000
     53 C        2220.8400 2362.9300    0.0000 C.3     1  UNL1        0.0000
     54 C        2329.3300 2289.5800    0.0000 C.2     1  UNL1        0.3641
     55 O        2294.6900 2269.5300    0.0000 O.co2   1  UNL1       -0.2457
     56 O        2363.9700 2269.5300    0.0000 O.co2   1  UNL1       -0.2457
@<TRIPOS>BOND
     1     2     1    1
     2     2     3    1
     3     2     8    1
     4     2    42    1
     5     3     4    1
     6     3    39    1
     7     4     5    1
     8     4     6    1
     9     4    15    1
    10     6     9    1
    11     6     7    1
    12     8     7    1
    13     9    10    1
    14     9    12    1
    15     9    13    1
    16    10    11    1
    17    13    16    1
    18    14    13    1
    19    15    14    1
    20    17    16    1
    21    17    18    1
    22    17    35    1
    23    18    19    1
    24    18    31    1
    25    20    19    1
    26    20    21    1
    27    20    27    1
    28    21    22    1
    29    22    23    1
    30    22    25    1
    31    23    24    1
    32    25    30    1
    33    26    25    1
    34    26    29    1
    35    27    26    1
    36    27    28    1
    37    31    32    1
    38    31    33    1
    39    33    38    1
    40    34    33    1
    41    34    36    1
    42    35    34    1
    43    36    37    1
    44    39    40    1
    45    41    40    2
    46    42    41    1
    47    42    43    1
    48    42    44    1
    49    44    45    1
    50    45    46    1
    51    46    51    1
    52    46    54    1
    53    47    41    1
    54    47    46    1
    55    47    48    1
    56    48    49    1
    57    49    50    1
    58    49    52    1
    59    49    53    1
    60    51    50    1
    61    54    55   ar
    62    54    56   ar
