@<TRIPOS>MOLECULE
IMPHY003262
 47 46 0 0 0
SMALL
GASTEIGER

@<TRIPOS>ATOM
      1 C           7.1962   -0.2500    0.0000 C.3     1  UNL1       -0.0439
      2 C           6.3301    0.2500    0.0000 C.3     1  UNL1       -0.0505
      3 C           8.0622    0.2500    0.0000 C.3     1  UNL1       -0.0505
      4 C           5.4641   -0.2500    0.0000 C.3     1  UNL1       -0.0528
      5 C           8.9282   -0.2500    0.0000 C.3     1  UNL1       -0.0526
      6 C           4.5981    0.2500    0.0000 C.3     1  UNL1       -0.0528
      7 C           9.7942    0.2500    0.0000 C.3     1  UNL1       -0.0507
      8 C           3.7320   -0.2500    0.0000 C.3     1  UNL1       -0.0507
      9 C           7.1962   -1.2500    0.0000 C.3     1  UNL1       -0.0624
     10 C          10.6603   -0.2500    0.0000 C.3     1  UNL1       -0.0467
     11 C           2.8660    0.2500    0.0000 C.3     1  UNL1       -0.0467
     12 C          11.5263    0.2500    0.0000 C.3     1  UNL1       -0.0627
     13 C          10.6603   -1.2500    0.0000 C.3     1  UNL1       -0.0627
     14 C           2.0000   -0.2500    0.0000 C.3     1  UNL1       -0.0627
     15 C           2.8660    1.2500    0.0000 C.3     1  UNL1       -0.0627
     16 H           6.6592   -0.5600    0.0000 H       1  UNL1        0.0298
     17 H           6.7287    0.7249    0.0000 H       1  UNL1        0.0268
     18 H           5.9316    0.7249    0.0000 H       1  UNL1        0.0268
     19 H           8.4607    0.7249    0.0000 H       1  UNL1        0.0268
     20 H           7.6636    0.7249    0.0000 H       1  UNL1        0.0268
     21 H           5.0656   -0.7249    0.0000 H       1  UNL1        0.0265
     22 H           5.8626   -0.7249    0.0000 H       1  UNL1        0.0265
     23 H           8.5297   -0.7249    0.0000 H       1  UNL1        0.0265
     24 H           9.3267   -0.7249    0.0000 H       1  UNL1        0.0265
     25 H           4.9966    0.7249    0.0000 H       1  UNL1        0.0265
     26 H           4.1996    0.7249    0.0000 H       1  UNL1        0.0265
     27 H          10.1928    0.7249    0.0000 H       1  UNL1        0.0268
     28 H           9.3957    0.7249    0.0000 H       1  UNL1        0.0268
     29 H           3.3335   -0.7249    0.0000 H       1  UNL1        0.0268
     30 H           4.1306   -0.7249    0.0000 H       1  UNL1        0.0268
     31 H           6.5762   -1.2500    0.0000 H       1  UNL1        0.0232
     32 H           7.1962   -1.8700    0.0000 H       1  UNL1        0.0232
     33 H           7.8162   -1.2500    0.0000 H       1  UNL1        0.0232
     34 H          11.1972   -0.5600    0.0000 H       1  UNL1        0.0295
     35 H           2.8660   -0.3700    0.0000 H       1  UNL1        0.0295
     36 H          10.0403   -1.2500    0.0000 H       1  UNL1        0.0232
     37 H          10.6603   -1.8700    0.0000 H       1  UNL1        0.0232
     38 H          11.2803   -1.2500    0.0000 H       1  UNL1        0.0232
     39 H          11.8363   -0.2869    0.0000 H       1  UNL1        0.0232
     40 H          12.0632    0.5600    0.0000 H       1  UNL1        0.0232
     41 H          11.2163    0.7869    0.0000 H       1  UNL1        0.0232
     42 H           3.4860    1.2500    0.0000 H       1  UNL1        0.0232
     43 H           2.8660    1.8700    0.0000 H       1  UNL1        0.0232
     44 H           2.2460    1.2500    0.0000 H       1  UNL1        0.0232
     45 H           1.6900    0.2869    0.0000 H       1  UNL1        0.0232
     46 H           1.4631   -0.5600    0.0000 H       1  UNL1        0.0232
     47 H           2.3100   -0.7869    0.0000 H       1  UNL1        0.0232
@<TRIPOS>BOND
     1     1     2    1
     2     1     3    1
     3     1     9    1
     4     1    16    1
     5     2     4    1
     6     2    17    1
     7     2    18    1
     8     3     5    1
     9     3    19    1
    10     3    20    1
    11     4     6    1
    12     4    21    1
    13     4    22    1
    14     5     7    1
    15     5    23    1
    16     5    24    1
    17     6     8    1
    18     6    25    1
    19     6    26    1
    20     7    10    1
    21     7    27    1
    22     7    28    1
    23     8    11    1
    24     8    29    1
    25     8    30    1
    26     9    31    1
    27     9    32    1
    28     9    33    1
    29    10    12    1
    30    10    13    1
    31    10    34    1
    32    11    14    1
    33    11    15    1
    34    11    35    1
    35    12    39    1
    36    12    40    1
    37    12    41    1
    38    13    36    1
    39    13    37    1
    40    13    38    1
    41    14    45    1
    42    14    46    1
    43    14    47    1
    44    15    42    1
    45    15    43    1
    46    15    44    1
