@<TRIPOS>MOLECULE
IMPHY013474
 64 68 0 0 0
SMALL
GASTEIGER

@<TRIPOS>ATOM
      1 O          10.7716    0.4971    0.0000 O.3     1  UNL1       -0.3911
      2 O           8.8260    3.0452    0.0000 O.2     1  UNL1       -0.2973
      3 N           2.8680   -2.0347    0.0000 N.3     1  UNL1       -0.3126
      4 C           6.3981   -0.0106    0.0000 C.3     1  UNL1       -0.0191
      5 C           5.5320   -0.5106    0.0000 C.3     1  UNL1       -0.0162
      6 C           5.5318    0.4898    0.0000 C.3     1  UNL1       -0.0398
      7 C           7.2641   -0.5106    0.0000 C.3     1  UNL1       -0.0288
      8 C           8.1741   -0.0037    0.0000 C.3     1  UNL1       -0.0203
      9 C           5.5320   -1.5106    0.0000 C.3     1  UNL1       -0.0125
     10 C           6.3820    1.0309    0.0000 C.3     1  UNL1       -0.0460
     11 C           8.1821    1.0378    0.0000 C.3     1  UNL1       -0.0144
     12 C           4.6381    0.0241    0.0000 C.3     1  UNL1       -0.0446
     13 C           7.2641   -1.5106    0.0000 C.3     1  UNL1       -0.0486
     14 C           7.2800    1.5587    0.0000 C.3     1  UNL1       -0.0459
     15 C           6.3981   -2.0106    0.0000 C.3     1  UNL1       -0.0457
     16 C           9.1572   -0.3288    0.0000 C.3     1  UNL1       -0.0200
     17 C           9.1702    1.3477    0.0000 C.3     1  UNL1        0.0490
     18 C           4.6381   -2.0452    0.0000 C.2     1  UNL1       -0.0562
     19 C           9.7716    0.5048    0.0000 C.3     1  UNL1        0.0657
     20 C           3.7320   -0.4898    0.0000 C.3     1  UNL1       -0.0332
     21 C           8.1664   -1.0037    0.0000 C.3     1  UNL1       -0.0587
     22 C           3.7320   -1.5314    0.0000 C.3     1  UNL1        0.0286
     23 C           8.1898    2.0378    0.0000 C.3     1  UNL1       -0.0583
     24 C           9.4881    2.2958    0.0000 C.2     1  UNL1        0.1363
     25 C           4.6497   -3.0452    0.0000 C.2     1  UNL1       -0.0977
     26 C          10.4682    2.4944    0.0000 C.3     1  UNL1       -0.0057
     27 C           2.0000   -1.5381    0.0000 C.3     1  UNL1       -0.0153
     28 H           5.7439    1.0724    0.0000 H       1  UNL1        0.0277
     29 H           4.9212    0.5975    0.0000 H       1  UNL1        0.0277
     30 H           7.9969   -0.9413    0.0000 H       1  UNL1        0.0312
     31 H           5.5368   -2.1306    0.0000 H       1  UNL1        0.0352
     32 H           6.1640    1.6113    0.0000 H       1  UNL1        0.0271
     33 H           5.7729    0.9154    0.0000 H       1  UNL1        0.0271
     34 H           5.0427    0.4939    0.0000 H       1  UNL1        0.0272
     35 H           4.2445    0.5031    0.0000 H       1  UNL1        0.0272
     36 H           7.4762   -2.0932    0.0000 H       1  UNL1        0.0268
     37 H           7.8747   -1.4029    0.0000 H       1  UNL1        0.0268
     38 H           7.6774    2.0346    0.0000 H       1  UNL1        0.0271
     39 H           6.8791    2.0316    0.0000 H       1  UNL1        0.0271
     40 H           5.9995   -2.4855    0.0000 H       1  UNL1        0.0271
     41 H           6.7966   -2.4855    0.0000 H       1  UNL1        0.0271
     42 H           8.9018   -0.8937    0.0000 H       1  UNL1        0.0296
     43 H           9.6922   -0.6421    0.0000 H       1  UNL1        0.0296
     44 H           9.7834    1.4391    0.0000 H       1  UNL1        0.0408
     45 H          10.0490   -0.0497    0.0000 H       1  UNL1        0.0600
     46 H           3.5230    0.0939    0.0000 H       1  UNL1        0.0284
     47 H           3.1212   -0.5959    0.0000 H       1  UNL1        0.0284
     48 H           7.5464   -0.9989    0.0000 H       1  UNL1        0.0235
     49 H           8.1616   -1.6237    0.0000 H       1  UNL1        0.0235
     50 H           8.7864   -1.0085    0.0000 H       1  UNL1        0.0235
     51 H           3.7356   -2.1514    0.0000 H       1  UNL1        0.0507
     52 H           8.8098    2.0330    0.0000 H       1  UNL1        0.0235
     53 H           8.1946    2.6578    0.0000 H       1  UNL1        0.0235
     54 H           7.5699    2.0426    0.0000 H       1  UNL1        0.0235
     55 H           4.1164   -3.3614    0.0000 H       1  UNL1        0.0535
     56 H           5.1902   -3.3490    0.0000 H       1  UNL1        0.0535
     57 H           2.8703   -2.6547    0.0000 H       1  UNL1        0.1222
     58 H          11.0774   -0.0423    0.0000 H       1  UNL1        0.2098
     59 H          10.5914    1.8868    0.0000 H       1  UNL1        0.0306
     60 H          11.0758    2.6176    0.0000 H       1  UNL1        0.0306
     61 H          10.3450    3.1021    0.0000 H       1  UNL1        0.0306
     62 H           2.3079   -1.0000    0.0000 H       1  UNL1        0.0388
     63 H           1.4619   -1.2302    0.0000 H       1  UNL1        0.0388
     64 H           1.6921   -2.0762    0.0000 H       1  UNL1        0.0388
@<TRIPOS>BOND
     1    19     1    1
     2     1    58    1
     3     2    24    2
     4    22     3    1
     5     3    27    1
     6     3    57    1
     7     4     5    1
     8     4     6    1
     9     4     7    1
    10     4    10    1
    11     5     6    1
    12     5     9    1
    13     5    12    1
    14     6    28    1
    15     6    29    1
    16     7     8    1
    17     7    13    1
    18     7    30    1
    19     8    11    1
    20     8    16    1
    21     8    21    1
    22     9    15    1
    23     9    18    1
    24     9    31    1
    25    10    14    1
    26    10    32    1
    27    10    33    1
    28    11    14    1
    29    11    17    1
    30    11    23    1
    31    12    20    1
    32    12    34    1
    33    12    35    1
    34    13    15    1
    35    13    36    1
    36    13    37    1
    37    14    38    1
    38    14    39    1
    39    15    40    1
    40    15    41    1
    41    16    19    1
    42    16    42    1
    43    16    43    1
    44    17    19    1
    45    17    24    1
    46    17    44    1
    47    18    22    1
    48    18    25    2
    49    19    45    1
    50    20    22    1
    51    20    46    1
    52    20    47    1
    53    21    48    1
    54    21    49    1
    55    21    50    1
    56    22    51    1
    57    23    52    1
    58    23    53    1
    59    23    54    1
    60    24    26    1
    61    25    55    1
    62    25    56    1
    63    26    59    1
    64    26    60    1
    65    26    61    1
    66    27    62    1
    67    27    63    1
    68    27    64    1
