@<TRIPOS>MOLECULE
IMPHY009036
 59 60 0 0 0
SMALL
GASTEIGER

@<TRIPOS>ATOM
      1 O           6.8671   -1.6550    0.0000 O.3     1  UNL1       -0.3425
      2 O           5.1350   -1.6550    0.0000 O.3     1  UNL1       -0.3405
      3 O           8.5991   -0.6550    0.0000 O.3     1  UNL1       -0.3849
      4 O           6.8671   -3.6550    0.0000 O.3     1  UNL1       -0.3841
      5 O           5.1350   -4.6550    0.0000 O.3     1  UNL1       -0.3864
      6 O           3.4030   -3.6550    0.0000 O.3     1  UNL1       -0.3865
      7 O           2.5369   -2.1550    0.0000 O.3     1  UNL1       -0.3924
      8 O           8.5991    4.3450    0.0000 O.3     1  UNL1       -0.3880
      9 C           6.0010    0.8450    0.0000 C.3     1  UNL1       -0.0074
     10 C           6.8671   -0.6550    0.0000 C.3     1  UNL1        0.0922
     11 C           6.0010   -0.1550    0.0000 C.3     1  UNL1       -0.0146
     12 C           7.7331   -0.1550    0.0000 C.3     1  UNL1        0.1027
     13 C           6.8671    1.3450    0.0000 C.2     1  UNL1       -0.0404
     14 C           7.7331    0.8450    0.0000 C.2     1  UNL1       -0.0384
     15 C           6.0010   -2.1550    0.0000 C.3     1  UNL1        0.1883
     16 C           6.0010   -3.1550    0.0000 C.3     1  UNL1        0.1341
     17 C           5.0010    0.8450    0.0000 C.3     1  UNL1       -0.0557
     18 C           5.5010    1.7110    0.0000 C.3     1  UNL1       -0.0557
     19 C           5.1350   -3.6550    0.0000 C.3     1  UNL1        0.1141
     20 C           4.2690   -3.1550    0.0000 C.3     1  UNL1        0.1119
     21 C           4.2690   -2.1550    0.0000 C.3     1  UNL1        0.1130
     22 C           8.5991    1.3450    0.0000 C.3     1  UNL1       -0.0407
     23 C           6.8671    2.3450    0.0000 C.2     1  UNL1       -0.0596
     24 C           3.4030   -1.6550    0.0000 C.3     1  UNL1        0.0730
     25 C           7.7331    2.8450    0.0000 C.2     1  UNL1       -0.0559
     26 C           7.7331    3.8450    0.0000 C.3     1  UNL1        0.0708
     27 C           6.8671    4.3450    0.0000 C.3     1  UNL1       -0.0353
     28 H           7.4040   -0.9650    0.0000 H       1  UNL1        0.0626
     29 H           5.3905   -0.0473    0.0000 H       1  UNL1        0.0299
     30 H           5.7890   -0.7376    0.0000 H       1  UNL1        0.0299
     31 H           8.2700    0.1550    0.0000 H       1  UNL1        0.0666
     32 H           6.0010   -1.5350    0.0000 H       1  UNL1        0.0938
     33 H           6.0010   -3.7750    0.0000 H       1  UNL1        0.0671
     34 H           4.5981   -3.9650    0.0000 H       1  UNL1        0.0648
     35 H           5.0010    1.4650    0.0000 H       1  UNL1        0.0238
     36 H           4.3810    0.8450    0.0000 H       1  UNL1        0.0238
     37 H           5.0010    0.2250    0.0000 H       1  UNL1        0.0238
     38 H           6.0380    2.0210    0.0000 H       1  UNL1        0.0238
     39 H           5.1910    2.2480    0.0000 H       1  UNL1        0.0238
     40 H           4.9641    1.4010    0.0000 H       1  UNL1        0.0238
     41 H           3.7320   -2.8450    0.0000 H       1  UNL1        0.0647
     42 H           4.2690   -1.5350    0.0000 H       1  UNL1        0.0647
     43 H           8.9091    0.8081    0.0000 H       1  UNL1        0.0275
     44 H           9.1360    1.6550    0.0000 H       1  UNL1        0.0275
     45 H           8.2891    1.8819    0.0000 H       1  UNL1        0.0275
     46 H           6.3301    2.6550    0.0000 H       1  UNL1        0.0618
     47 H           3.8015   -1.1800    0.0000 H       1  UNL1        0.0584
     48 H           3.0044   -1.1800    0.0000 H       1  UNL1        0.0584
     49 H           9.1360   -0.3450    0.0000 H       1  UNL1        0.2103
     50 H           6.8671   -4.2750    0.0000 H       1  UNL1        0.2101
     51 H           4.5981   -4.9650    0.0000 H       1  UNL1        0.2100
     52 H           3.4030   -4.2750    0.0000 H       1  UNL1        0.2100
     53 H           8.2700    2.5350    0.0000 H       1  UNL1        0.0597
     54 H           7.7331    4.4650    0.0000 H       1  UNL1        0.0635
     55 H           2.0000   -1.8450    0.0000 H       1  UNL1        0.2095
     56 H           7.1771    4.8819    0.0000 H       1  UNL1        0.0258
     57 H           6.3301    4.6550    0.0000 H       1  UNL1        0.0258
     58 H           6.5571    3.8081    0.0000 H       1  UNL1        0.0258
     59 H           8.5991    4.9650    0.0000 H       1  UNL1        0.2102
@<TRIPOS>BOND
     1     1    10    1
     2    15     1    1
     3     2    15    1
     4     2    21    1
     5     3    12    1
     6     3    49    1
     7    16     4    1
     8     4    50    1
     9    19     5    1
    10     5    51    1
    11    20     6    1
    12     6    52    1
    13     7    24    1
    14     7    55    1
    15     8    26    1
    16     8    59    1
    17     9    11    1
    18     9    13    1
    19     9    17    1
    20     9    18    1
    21    10    11    1
    22    10    12    1
    23    10    28    1
    24    11    29    1
    25    11    30    1
    26    12    14    1
    27    12    31    1
    28    13    14    2
    29    13    23    1
    30    14    22    1
    31    15    16    1
    32    15    32    1
    33    16    19    1
    34    16    33    1
    35    17    35    1
    36    17    36    1
    37    17    37    1
    38    18    38    1
    39    18    39    1
    40    18    40    1
    41    19    20    1
    42    19    34    1
    43    20    21    1
    44    20    41    1
    45    21    24    1
    46    21    42    1
    47    22    43    1
    48    22    44    1
    49    22    45    1
    50    23    25    2
    51    23    46    1
    52    24    47    1
    53    24    48    1
    54    25    26    1
    55    25    53    1
    56    26    27    1
    57    26    54    1
    58    27    56    1
    59    27    57    1
    60    27    58    1
