@<TRIPOS>MOLECULE
IMPHY014649
 79 82 0 0 0
SMALL
GASTEIGER

@<TRIPOS>ATOM
      1 O           4.3472   -4.0496    0.0000 O.3     1  UNL1       -0.3889
      2 O           2.5357   -3.0037    0.0000 O.3     1  UNL1       -0.3892
      3 C           7.9288    0.0486    0.0000 C.3     1  UNL1       -0.0222
      4 C           7.9288   -0.9514    0.0000 C.3     1  UNL1       -0.0139
      5 C           6.1968   -0.9514    0.0000 C.3     1  UNL1       -0.0139
      6 C           5.2868   -1.4582    0.0000 C.3     1  UNL1       -0.0199
      7 C           8.8750    0.3533    0.0000 C.3     1  UNL1       -0.0291
      8 C           7.0628   -1.4514    0.0000 C.2     1  UNL1       -0.0662
      9 C           7.0628    0.5486    0.0000 C.3     1  UNL1       -0.0463
     10 C           5.2787   -2.4998    0.0000 C.3     1  UNL1       -0.0032
     11 C           6.1968    0.0486    0.0000 C.3     1  UNL1       -0.0455
     12 C           8.8750   -1.2561    0.0000 C.3     1  UNL1       -0.0457
     13 C           9.4586   -0.4514    0.0000 C.3     1  UNL1       -0.0486
     14 C           4.3599   -0.8942    0.0000 C.3     1  UNL1       -0.0443
     15 C           6.1808   -3.0207    0.0000 C.3     1  UNL1       -0.0287
     16 C           7.9288    1.0486    0.0000 C.3     1  UNL1       -0.0587
     17 C           4.3433   -3.0496    0.0000 C.3     1  UNL1        0.0846
     18 C           7.0789   -2.4929    0.0000 C.2     1  UNL1       -0.0838
     19 C           9.1857    1.3038    0.0000 C.3     1  UNL1       -0.0224
     20 C           5.2945   -0.4583    0.0000 C.3     1  UNL1       -0.0587
     21 C           3.4120   -1.4221    0.0000 C.3     1  UNL1       -0.0239
     22 C           3.4037   -2.5071    0.0000 C.3     1  UNL1        0.0814
     23 C           8.5179    2.0482    0.0000 C.3     1  UNL1       -0.0587
     24 C          10.1642    1.5101    0.0000 C.2     1  UNL1       -0.0845
     25 C          10.4749    2.4606    0.0000 C.2     1  UNL1       -0.0843
     26 C          11.4534    2.6668    0.0000 C.3     1  UNL1       -0.0208
     27 C          11.7640    3.6173    0.0000 C.3     1  UNL1       -0.0405
     28 C          12.1212    1.9225    0.0000 C.3     1  UNL1       -0.0494
     29 C          12.7425    3.8236    0.0000 C.3     1  UNL1       -0.0621
     30 C          11.0962    4.3616    0.0000 C.3     1  UNL1       -0.0621
     31 C          13.0997    2.1287    0.0000 C.3     1  UNL1       -0.0647
     32 H           8.0188   -1.7966    0.0000 H       1  UNL1        0.0351
     33 H           6.9329   -0.5264    0.0000 H       1  UNL1        0.0351
     34 H           9.7148    0.4852    0.0000 H       1  UNL1        0.0312
     35 H           7.4613    1.0236    0.0000 H       1  UNL1        0.0271
     36 H           6.6643    1.0236    0.0000 H       1  UNL1        0.0271
     37 H           5.2811   -3.1198    0.0000 H       1  UNL1        0.0335
     38 H           5.9847    0.6312    0.0000 H       1  UNL1        0.0271
     39 H           5.5862   -0.0591    0.0000 H       1  UNL1        0.0271
     40 H           8.6240   -1.8230    0.0000 H       1  UNL1        0.0271
     41 H           9.4124   -1.5654    0.0000 H       1  UNL1        0.0271
     42 H           9.9195   -0.8661    0.0000 H       1  UNL1        0.0268
     43 H           9.9195   -0.0367    0.0000 H       1  UNL1        0.0268
     44 H           4.7681   -0.4275    0.0000 H       1  UNL1        0.0272
     45 H           3.9700   -0.4121    0.0000 H       1  UNL1        0.0272
     46 H           5.7835   -3.4966    0.0000 H       1  UNL1        0.0311
     47 H           6.5818   -3.4936    0.0000 H       1  UNL1        0.0311
     48 H           8.5488    1.0486    0.0000 H       1  UNL1        0.0235
     49 H           7.9288    1.6686    0.0000 H       1  UNL1        0.0235
     50 H           7.3088    1.0486    0.0000 H       1  UNL1        0.0235
     51 H           3.8070   -3.3606    0.0000 H       1  UNL1        0.0622
     52 H           7.6193   -2.7967    0.0000 H       1  UNL1        0.0572
     53 H           9.3783    1.8932    0.0000 H       1  UNL1        0.0343
     54 H           5.9145   -0.4631    0.0000 H       1  UNL1        0.0235
     55 H           5.2993    0.1617    0.0000 H       1  UNL1        0.0235
     56 H           4.6745   -0.4535    0.0000 H       1  UNL1        0.0235
     57 H           3.2075   -0.8368    0.0000 H       1  UNL1        0.0291
     58 H           2.8004   -1.5235    0.0000 H       1  UNL1        0.0291
     59 H           3.4025   -3.1271    0.0000 H       1  UNL1        0.0619
     60 H           8.9793    2.4622    0.0000 H       1  UNL1        0.0235
     61 H           8.1038    2.5096    0.0000 H       1  UNL1        0.0235
     62 H           8.0564    1.6341    0.0000 H       1  UNL1        0.0235
     63 H          10.5783    1.0486    0.0000 H       1  UNL1        0.0572
     64 H           3.8114   -4.3616    0.0000 H       1  UNL1        0.2099
     65 H           2.0000   -2.6917    0.0000 H       1  UNL1        0.2099
     66 H          10.0608    2.9221    0.0000 H       1  UNL1        0.0572
     67 H          12.0601    2.7947    0.0000 H       1  UNL1        0.0345
     68 H          12.1781    3.1559    0.0000 H       1  UNL1        0.0301
     69 H          11.5949    1.5949    0.0000 H       1  UNL1        0.0268
     70 H          12.3525    1.3472    0.0000 H       1  UNL1        0.0268
     71 H          12.8704    3.2169    0.0000 H       1  UNL1        0.0233
     72 H          13.3492    3.9514    0.0000 H       1  UNL1        0.0233
     73 H          12.6147    4.4302    0.0000 H       1  UNL1        0.0233
     74 H          11.5577    4.7757    0.0000 H       1  UNL1        0.0233
     75 H          10.6821    4.8231    0.0000 H       1  UNL1        0.0233
     76 H          10.6347    3.9476    0.0000 H       1  UNL1        0.0233
     77 H          13.2276    1.5220    0.0000 H       1  UNL1        0.0230
     78 H          13.7064    2.2566    0.0000 H       1  UNL1        0.0230
     79 H          12.9719    2.7354    0.0000 H       1  UNL1        0.0230
@<TRIPOS>BOND
     1    17     1    1
     2     1    64    1
     3    22     2    1
     4     2    65    1
     5     3     4    1
     6     3     7    1
     7     3     9    1
     8     3    16    1
     9     4     8    1
    10     4    12    1
    11     4    32    1
    12     5     6    1
    13     5     8    1
    14     5    11    1
    15     5    33    1
    16     6    10    1
    17     6    14    1
    18     6    20    1
    19     7    13    1
    20     7    19    1
    21     7    34    1
    22     8    18    2
    23     9    11    1
    24     9    35    1
    25     9    36    1
    26    10    15    1
    27    10    17    1
    28    10    37    1
    29    11    38    1
    30    11    39    1
    31    12    13    1
    32    12    40    1
    33    12    41    1
    34    13    42    1
    35    13    43    1
    36    14    21    1
    37    14    44    1
    38    14    45    1
    39    15    18    1
    40    15    46    1
    41    15    47    1
    42    16    48    1
    43    16    49    1
    44    16    50    1
    45    17    22    1
    46    17    51    1
    47    18    52    1
    48    19    23    1
    49    19    24    1
    50    19    53    1
    51    20    54    1
    52    20    55    1
    53    20    56    1
    54    21    22    1
    55    21    57    1
    56    21    58    1
    57    22    59    1
    58    23    60    1
    59    23    61    1
    60    23    62    1
    61    24    25    2
    62    24    63    1
    63    25    26    1
    64    25    66    1
    65    26    27    1
    66    26    28    1
    67    26    67    1
    68    27    29    1
    69    27    30    1
    70    27    68    1
    71    28    31    1
    72    28    69    1
    73    28    70    1
    74    29    71    1
    75    29    72    1
    76    29    73    1
    77    30    74    1
    78    30    75    1
    79    30    76    1
    80    31    77    1
    81    31    78    1
    82    31    79    1
