@<TRIPOS>MOLECULE
IMPHY014146
 46 51 0 0 0
SMALL
GASTEIGER

@<TRIPOS>ATOM
      1 O           8.1744   -0.4654    0.0000 O.2     1  UNL1       -0.2866
      2 O           4.6660    0.4654    0.0000 O.2     1  UNL1       -0.2866
      3 O           8.1744    3.5346    0.0000 O.2     1  UNL1       -0.2866
      4 O           4.6660   -3.5346    0.0000 O.2     1  UNL1       -0.2866
      5 C           6.4144    0.5000    0.0000 C.ar    1  UNL1       -0.0057
      6 C           6.4260   -0.5000    0.0000 C.ar    1  UNL1       -0.0057
      7 C           7.3084    1.0346    0.0000 C.ar    1  UNL1        0.0408
      8 C           5.5321   -1.0346    0.0000 C.ar    1  UNL1        0.0408
      9 C           7.3084    2.0346    0.0000 C.ar    1  UNL1        0.0337
     10 C           5.5321   -2.0346    0.0000 C.ar    1  UNL1        0.0337
     11 C           8.1744    0.5346    0.0000 C.2     1  UNL1        0.1951
     12 C           4.6660   -0.5346    0.0000 C.2     1  UNL1        0.1951
     13 C           9.0404    1.0346    0.0000 C.ar    1  UNL1        0.0331
     14 C           3.8000   -1.0346    0.0000 C.ar    1  UNL1        0.0331
     15 C           9.0404    2.0346    0.0000 C.ar    1  UNL1        0.0331
     16 C           3.8000   -2.0346    0.0000 C.ar    1  UNL1        0.0331
     17 C           5.5084    1.0138    0.0000 C.ar    1  UNL1       -0.0533
     18 C           7.3321   -1.0138    0.0000 C.ar    1  UNL1       -0.0533
     19 C           8.1744    2.5346    0.0000 C.2     1  UNL1        0.1945
     20 C           4.6660   -2.5346    0.0000 C.2     1  UNL1        0.1945
     21 C           6.4144    2.5693    0.0000 C.ar    1  UNL1       -0.0502
     22 C           6.4260   -2.5693    0.0000 C.ar    1  UNL1       -0.0502
     23 C           5.5084    2.0554    0.0000 C.ar    1  UNL1       -0.0605
     24 C           7.3321   -2.0554    0.0000 C.ar    1  UNL1       -0.0605
     25 C           9.9344    0.5000    0.0000 C.ar    1  UNL1       -0.0502
     26 C           2.9061   -0.5000    0.0000 C.ar    1  UNL1       -0.0502
     27 C           9.9344    2.5693    0.0000 C.ar    1  UNL1       -0.0502
     28 C           2.9061   -2.5693    0.0000 C.ar    1  UNL1       -0.0502
     29 C          10.8404    1.0138    0.0000 C.ar    1  UNL1       -0.0610
     30 C           2.0000   -1.0138    0.0000 C.ar    1  UNL1       -0.0610
     31 C          10.8404    2.0554    0.0000 C.ar    1  UNL1       -0.0610
     32 C           2.0000   -2.0554    0.0000 C.ar    1  UNL1       -0.0610
     33 H           4.9726    0.7017    0.0000 H       1  UNL1        0.0624
     34 H           7.8678   -0.7017    0.0000 H       1  UNL1        0.0624
     35 H           6.4216    3.1892    0.0000 H       1  UNL1        0.0625
     36 H           6.4188   -3.1892    0.0000 H       1  UNL1        0.0625
     37 H           4.9726    2.3675    0.0000 H       1  UNL1        0.0618
     38 H           7.8678   -2.3675    0.0000 H       1  UNL1        0.0618
     39 H           9.9272   -0.1200    0.0000 H       1  UNL1        0.0625
     40 H           2.9132    0.1200    0.0000 H       1  UNL1        0.0625
     41 H           9.9272    3.1892    0.0000 H       1  UNL1        0.0625
     42 H           2.9132   -3.1892    0.0000 H       1  UNL1        0.0625
     43 H          11.3762    0.7017    0.0000 H       1  UNL1        0.0618
     44 H           1.4643   -0.7017    0.0000 H       1  UNL1        0.0618
     45 H          11.3762    2.3675    0.0000 H       1  UNL1        0.0618
     46 H           1.4643   -2.3675    0.0000 H       1  UNL1        0.0618
@<TRIPOS>BOND
     1     1    11    2
     2     2    12    2
     3     3    19    2
     4     4    20    2
     5     5     6    1
     6     5     7   ar
     7     5    17   ar
     8     6     8   ar
     9     6    18   ar
    10     7     9   ar
    11     7    11    1
    12     8    10   ar
    13     8    12    1
    14     9    19    1
    15     9    21   ar
    16    10    20    1
    17    10    22   ar
    18    11    13    1
    19    12    14    1
    20    13    15   ar
    21    13    25   ar
    22    14    16   ar
    23    14    26   ar
    24    15    19    1
    25    15    27   ar
    26    16    20    1
    27    16    28   ar
    28    17    23   ar
    29    17    33    1
    30    18    24   ar
    31    18    34    1
    32    21    23   ar
    33    21    35    1
    34    22    24   ar
    35    22    36    1
    36    23    37    1
    37    24    38    1
    38    25    29   ar
    39    25    39    1
    40    26    30   ar
    41    26    40    1
    42    27    31   ar
    43    27    41    1
    44    28    32   ar
    45    28    42    1
    46    29    31   ar
    47    29    43    1
    48    30    32   ar
    49    30    44    1
    50    31    45    1
    51    32    46    1
