@<TRIPOS>MOLECULE
IMPHY007925
 33 36 0 0 0
SMALL
GASTEIGER

@<TRIPOS>ATOM
      1 N           4.5124    1.3037    0.0000 N.ar    1  UNL1       -0.3539
      2 N           8.3618   -1.3408    0.0000 N.ar    1  UNL1       -0.2626
      3 C           5.0091   -0.2295    0.0000 C.ar    1  UNL1        0.0112
      4 C           5.3181    0.7215    0.0000 C.ar    1  UNL1        0.0513
      5 C           5.6782   -0.9727    0.0000 C.ar    1  UNL1       -0.0316
      6 C           4.0150   -0.2270    0.0000 C.ar    1  UNL1        0.0077
      7 C           6.2962    0.9294    0.0000 C.ar    1  UNL1       -0.0187
      8 C           6.9654    0.1863    0.0000 C.ar    1  UNL1       -0.0099
      9 C           6.6564   -0.7648    0.0000 C.ar    1  UNL1        0.0041
     10 C           3.7086    0.7187    0.0000 C.ar    1  UNL1        0.0475
     11 C           5.3692   -1.9237    0.0000 C.3     1  UNL1       -0.0384
     12 C           3.3334   -1.0065    0.0000 C.ar    1  UNL1       -0.0520
     13 C           6.6053    1.8805    0.0000 C.3     1  UNL1       -0.0372
     14 C           2.6994    0.9505    0.0000 C.ar    1  UNL1       -0.0378
     15 C           7.9808    0.4185    0.0000 C.ar    1  UNL1       -0.0355
     16 C           7.3413   -1.5495    0.0000 C.ar    1  UNL1        0.0355
     17 C           2.3191   -0.7981    0.0000 C.ar    1  UNL1       -0.0611
     18 C           2.0000    0.1870    0.0000 C.ar    1  UNL1       -0.0598
     19 C           8.6837   -0.3501    0.0000 C.ar    1  UNL1        0.0282
     20 H           4.5113    1.9237    0.0000 H       1  UNL1        0.1659
     21 H           4.7795   -1.7322    0.0000 H       1  UNL1        0.0278
     22 H           5.1776   -2.5134    0.0000 H       1  UNL1        0.0278
     23 H           5.9588   -2.1153    0.0000 H       1  UNL1        0.0278
     24 H           3.5313   -1.5940    0.0000 H       1  UNL1        0.0624
     25 H           7.1949    1.6889    0.0000 H       1  UNL1        0.0278
     26 H           6.7968    2.4701    0.0000 H       1  UNL1        0.0278
     27 H           6.0156    2.0721    0.0000 H       1  UNL1        0.0278
     28 H           2.5152    1.5425    0.0000 H       1  UNL1        0.0638
     29 H           8.1655    1.0104    0.0000 H       1  UNL1        0.0639
     30 H           7.1429   -2.1369    0.0000 H       1  UNL1        0.0836
     31 H           1.9056   -1.2601    0.0000 H       1  UNL1        0.0618
     32 H           1.3942    0.3187    0.0000 H       1  UNL1        0.0618
     33 H           9.2897   -0.2189    0.0000 H       1  UNL1        0.0830
@<TRIPOS>BOND
     1     1     4   ar
     2     1    10   ar
     3     1    20    1
     4     2    16   ar
     5     2    19   ar
     6     3     4   ar
     7     3     5   ar
     8     3     6   ar
     9     4     7   ar
    10     5     9   ar
    11     5    11    1
    12     6    10   ar
    13     6    12   ar
    14     7     8   ar
    15     7    13    1
    16     8     9   ar
    17     8    15   ar
    18     9    16   ar
    19    10    14   ar
    20    11    21    1
    21    11    22    1
    22    11    23    1
    23    12    17   ar
    24    12    24    1
    25    13    25    1
    26    13    26    1
    27    13    27    1
    28    14    18   ar
    29    14    28    1
    30    15    19   ar
    31    15    29    1
    32    16    30    1
    33    17    18   ar
    34    17    31    1
    35    18    32    1
    36    19    33    1
