@<TRIPOS>MOLECULE
IMPHY017901
 54 54 0 0 0
SMALL
GASTEIGER

@<TRIPOS>ATOM
      1 O           3.7320   -3.2500    0.0000 O.3     1  UNL1       -0.4612
      2 O           2.0000   -3.2500    0.0000 O.2     1  UNL1       -0.2450
      3 C           6.3301    2.2500    0.0000 C.3     1  UNL1       -0.0531
      4 C           6.3301    1.2500    0.0000 C.3     1  UNL1       -0.0531
      5 C           7.1962    2.7500    0.0000 C.3     1  UNL1       -0.0531
      6 C           5.4641    0.7500    0.0000 C.3     1  UNL1       -0.0531
      7 C           7.1962    3.7500    0.0000 C.3     1  UNL1       -0.0531
      8 C           5.4641   -0.2500    0.0000 C.3     1  UNL1       -0.0530
      9 C           8.0622    4.2500    0.0000 C.3     1  UNL1       -0.0531
     10 C           4.5981   -0.7500    0.0000 C.3     1  UNL1       -0.0500
     11 C           8.0622    5.2500    0.0000 C.3     1  UNL1       -0.0533
     12 C           4.5981   -1.7500    0.0000 C.3     1  UNL1       -0.0185
     13 C           8.9282    5.7500    0.0000 C.3     1  UNL1       -0.0559
     14 C           3.7320   -2.2500    0.0000 C.3     1  UNL1        0.0928
     15 C           8.9282    6.7500    0.0000 C.3     1  UNL1       -0.0653
     16 C           2.8660   -3.7500    0.0000 C.2     1  UNL1        0.3392
     17 C           2.8660   -4.7500    0.0000 C.ar    1  UNL1        0.0590
     18 C           2.0000   -5.2500    0.0000 C.ar    1  UNL1       -0.0478
     19 C           3.7320   -5.2500    0.0000 C.ar    1  UNL1       -0.0478
     20 C           2.0000   -6.2500    0.0000 C.ar    1  UNL1       -0.0610
     21 C           3.7320   -6.2500    0.0000 C.ar    1  UNL1       -0.0610
     22 C           2.8660   -6.7500    0.0000 C.ar    1  UNL1       -0.0617
     23 H           6.1181    2.8326    0.0000 H       1  UNL1        0.0265
     24 H           5.7196    2.1423    0.0000 H       1  UNL1        0.0265
     25 H           6.5422    0.6674    0.0000 H       1  UNL1        0.0265
     26 H           6.9407    1.3577    0.0000 H       1  UNL1        0.0265
     27 H           7.4082    2.1674    0.0000 H       1  UNL1        0.0265
     28 H           7.8067    2.8577    0.0000 H       1  UNL1        0.0265
     29 H           5.2520    1.3326    0.0000 H       1  UNL1        0.0265
     30 H           4.8535    0.6423    0.0000 H       1  UNL1        0.0265
     31 H           6.9841    4.3326    0.0000 H       1  UNL1        0.0265
     32 H           6.5856    3.6423    0.0000 H       1  UNL1        0.0265
     33 H           5.6762   -0.8326    0.0000 H       1  UNL1        0.0265
     34 H           6.0747   -0.1423    0.0000 H       1  UNL1        0.0265
     35 H           8.2742    3.6674    0.0000 H       1  UNL1        0.0265
     36 H           8.6728    4.3577    0.0000 H       1  UNL1        0.0265
     37 H           4.3860   -0.1674    0.0000 H       1  UNL1        0.0266
     38 H           3.9875   -0.8577    0.0000 H       1  UNL1        0.0266
     39 H           7.8501    5.8326    0.0000 H       1  UNL1        0.0265
     40 H           7.4516    5.1423    0.0000 H       1  UNL1        0.0265
     41 H           4.8101   -2.3326    0.0000 H       1  UNL1        0.0298
     42 H           5.2087   -1.6423    0.0000 H       1  UNL1        0.0298
     43 H           9.1403    5.1674    0.0000 H       1  UNL1        0.0263
     44 H           9.5388    5.8577    0.0000 H       1  UNL1        0.0263
     45 H           3.5200   -1.6674    0.0000 H       1  UNL1        0.0697
     46 H           3.1215   -2.3577    0.0000 H       1  UNL1        0.0697
     47 H           9.5482    6.7500    0.0000 H       1  UNL1        0.0230
     48 H           8.9282    7.3700    0.0000 H       1  UNL1        0.0230
     49 H           8.3082    6.7500    0.0000 H       1  UNL1        0.0230
     50 H           1.4631   -4.9400    0.0000 H       1  UNL1        0.0626
     51 H           4.2690   -4.9400    0.0000 H       1  UNL1        0.0626
     52 H           1.4631   -6.5600    0.0000 H       1  UNL1        0.0618
     53 H           4.2690   -6.5600    0.0000 H       1  UNL1        0.0618
     54 H           2.8660   -7.3700    0.0000 H       1  UNL1        0.0618
@<TRIPOS>BOND
     1     1    14    1
     2     1    16    1
     3     2    16    2
     4     3     4    1
     5     3     5    1
     6     3    23    1
     7     3    24    1
     8     4     6    1
     9     4    25    1
    10     4    26    1
    11     5     7    1
    12     5    27    1
    13     5    28    1
    14     6     8    1
    15     6    29    1
    16     6    30    1
    17     7     9    1
    18     7    31    1
    19     7    32    1
    20     8    10    1
    21     8    33    1
    22     8    34    1
    23     9    11    1
    24     9    35    1
    25     9    36    1
    26    10    12    1
    27    10    37    1
    28    10    38    1
    29    11    13    1
    30    11    39    1
    31    11    40    1
    32    12    14    1
    33    12    41    1
    34    12    42    1
    35    13    15    1
    36    13    43    1
    37    13    44    1
    38    14    45    1
    39    14    46    1
    40    15    47    1
    41    15    48    1
    42    15    49    1
    43    16    17    1
    44    17    18   ar
    45    17    19   ar
    46    18    20   ar
    47    18    50    1
    48    19    21   ar
    49    19    51    1
    50    20    22   ar
    51    20    52    1
    52    21    22   ar
    53    21    53    1
    54    22    54    1
