@<TRIPOS>MOLECULE
IMPHY017633
 37 36 0 0 0
SMALL
GASTEIGER

@<TRIPOS>ATOM
      1 O           4.5981    0.7500    0.0000 O.3     1  UNL1       -0.4640
      2 O           3.7320    2.2500    0.0000 O.2     1  UNL1       -0.2509
      3 C           6.3301    0.7500    0.0000 C.3     1  UNL1        0.0141
      4 C           6.3301   -0.2500    0.0000 C.3     1  UNL1       -0.0397
      5 C           5.4641   -0.7500    0.0000 C.3     1  UNL1       -0.0316
      6 C           5.4641    1.2500    0.0000 C.3     1  UNL1        0.0989
      7 C           7.1962    1.2500    0.0000 C.2     1  UNL1       -0.0734
      8 C           5.4641   -1.7500    0.0000 C.2     1  UNL1       -0.0797
      9 C           8.0622    0.7500    0.0000 C.3     1  UNL1       -0.0437
     10 C           7.1962    2.2500    0.0000 C.2     1  UNL1       -0.0993
     11 C           4.5981   -2.2500    0.0000 C.3     1  UNL1       -0.0440
     12 C           3.7320    1.2500    0.0000 C.2     1  UNL1        0.3068
     13 C           6.3301   -2.2500    0.0000 C.2     1  UNL1       -0.0997
     14 C           2.8660    0.7500    0.0000 C.3     1  UNL1        0.0421
     15 C           2.0000    1.2500    0.0000 C.3     1  UNL1       -0.0552
     16 H           6.8671    0.4400    0.0000 H       1  UNL1        0.0379
     17 H           6.5422   -0.8326    0.0000 H       1  UNL1        0.0275
     18 H           6.9407   -0.1423    0.0000 H       1  UNL1        0.0275
     19 H           5.2520   -0.1674    0.0000 H       1  UNL1        0.0310
     20 H           4.8535   -0.8577    0.0000 H       1  UNL1        0.0310
     21 H           5.8626    1.7250    0.0000 H       1  UNL1        0.0703
     22 H           5.0656    1.7250    0.0000 H       1  UNL1        0.0703
     23 H           7.7522    0.2131    0.0000 H       1  UNL1        0.0274
     24 H           8.5991    0.4400    0.0000 H       1  UNL1        0.0274
     25 H           8.3722    1.2869    0.0000 H       1  UNL1        0.0274
     26 H           7.7331    2.5600    0.0000 H       1  UNL1        0.0534
     27 H           6.6592    2.5600    0.0000 H       1  UNL1        0.0534
     28 H           4.2881   -1.7131    0.0000 H       1  UNL1        0.0274
     29 H           4.0611   -2.5600    0.0000 H       1  UNL1        0.0274
     30 H           4.9081   -2.7869    0.0000 H       1  UNL1        0.0274
     31 H           6.3301   -2.8700    0.0000 H       1  UNL1        0.0534
     32 H           6.8671   -1.9400    0.0000 H       1  UNL1        0.0534
     33 H           2.4675    0.2751    0.0000 H       1  UNL1        0.0375
     34 H           3.2646    0.2751    0.0000 H       1  UNL1        0.0375
     35 H           2.3100    1.7869    0.0000 H       1  UNL1        0.0235
     36 H           1.4631    1.5600    0.0000 H       1  UNL1        0.0235
     37 H           1.6900    0.7131    0.0000 H       1  UNL1        0.0235
@<TRIPOS>BOND
     1     1     6    1
     2     1    12    1
     3     2    12    2
     4     3     4    1
     5     3     6    1
     6     3     7    1
     7     3    16    1
     8     4     5    1
     9     4    17    1
    10     4    18    1
    11     5     8    1
    12     5    19    1
    13     5    20    1
    14     6    21    1
    15     6    22    1
    16     7     9    1
    17     7    10    2
    18     8    11    1
    19     8    13    2
    20     9    23    1
    21     9    24    1
    22     9    25    1
    23    10    26    1
    24    10    27    1
    25    11    28    1
    26    11    29    1
    27    11    30    1
    28    12    14    1
    29    13    31    1
    30    13    32    1
    31    14    15    1
    32    14    33    1
    33    14    34    1
    34    15    35    1
    35    15    36    1
    36    15    37    1
