@<TRIPOS>MOLECULE
IMPHY000270
 96 101 0 0 0
SMALL
GASTEIGER

@<TRIPOS>ATOM
      1 O          12.4680    0.1184    0.0000 O.2     7  ALA7       -0.2736
      2 O          10.1119   -2.8361    0.0000 O.2     1  PRO1       -0.2738
      3 O          11.6271    3.8026    0.0000 O.2     6  PRO6       -0.2738
      4 O           8.2224    5.4422    0.0000 O.2     5  GLY5       -0.2739
      5 O           6.3330   -2.8361    0.0000 O.2     2  PHE2       -0.2738
      6 O           3.9768    0.1184    0.0000 O.2     3  TRP3       -0.2738
      7 O           4.8177    3.8026    0.0000 O.2     4  GLY4       -0.2741
      8 N          11.1277   -0.5900    0.0000 N.am    1  PRO1       -0.2884
      9 N           9.2112    4.2931    0.0000 N.am    6  PRO6       -0.2886
     10 N          11.3453    2.3130    0.0000 N.am    7  ALA7       -0.3027
     11 N           8.7224   -2.2299    0.0000 N.am    2  PHE2       -0.3022
     12 N           5.9406   -1.3718    0.0000 N.am    3  TRP3       -0.3022
     13 N           6.3326    3.8592    0.0000 N.am    5  GLY5       -0.3054
     14 N           4.8770    1.3381    0.0000 N.am    4  GLY4       -0.3052
     15 NE1         4.9511   -3.6198    0.0000 N.ar    3  TRP3       -0.3604
     16 CA         10.5042   -1.3718    0.0000 C.3     1  PRO1        0.1023
     17 CB         11.0540   -2.2000    0.0000 C.3     1  PRO1       -0.0243
     18 CG         12.0120   -1.9347    0.0000 C.3     1  PRO1       -0.0350
     19 CD         12.0575   -0.9417    0.0000 C.3     1  PRO1        0.0156
     20 CA         10.1122    3.8592    0.0000 C.3     6  PRO6        0.1023
     21 CB         10.7973    4.5795    0.0000 C.3     6  PRO6       -0.0243
     22 CG         10.3255    5.4545    0.0000 C.3     6  PRO6       -0.0350
     23 CD          9.3472    5.2779    0.0000 C.3     6  PRO6        0.0156
     24 C          11.4931    0.3409    0.0000 C.2     7  ALA7        0.2362
     25 CA         11.5678    1.3381    0.0000 C.3     7  ALA7        0.0968
     26 C           9.6780   -1.9351    0.0000 C.2     1  PRO1        0.2342
     27 C          10.8453    3.1791    0.0000 C.2     6  PRO6        0.2342
     28 C           8.2224    4.4422    0.0000 C.2     5  GLY5        0.2334
     29 CA          7.7224   -2.2299    0.0000 C.3     2  PHE2        0.1034
     30 CB         12.5650    1.4128    0.0000 C.3     7  ALA7       -0.0381
     31 CA          7.2336    4.2931    0.0000 C.3     5  GLY5        0.0884
     32 CB          7.5734   -3.2187    0.0000 C.3     2  PHE2       -0.0007
     33 C           6.7668   -1.9351    0.0000 C.2     2  PHE2        0.2343
     34 CA          5.3171   -0.5900    0.0000 C.3     3  TRP3        0.1034
     35 CG          8.3552   -3.8422    0.0000 C.ar    2  PHE2       -0.0451
     36 CB          4.4511   -1.0900    0.0000 C.3     3  TRP3        0.0013
     37 CG          4.4511   -2.0900    0.0000 C.ar    3  TRP3       -0.0201
     38 C           4.9518    0.3409    0.0000 C.2     3  TRP3        0.2341
     39 C           5.5996    3.1791    0.0000 C.2     4  GLY4        0.2306
     40 CA          5.0996    2.3130    0.0000 C.3     4  GLY4        0.0882
     41 CD2         3.6464   -2.6736    0.0000 C.ar    3  TRP3        0.0029
     42 CD1         8.2062   -4.8310    0.0000 C.ar    2  PHE2       -0.0585
     43 CD2         9.2861   -3.4768    0.0000 C.ar    2  PHE2       -0.0585
     44 CD1         5.2558   -2.6736    0.0000 C.ar    3  TRP3        0.0060
     45 CE2         3.9570   -3.6241    0.0000 C.ar    3  TRP3        0.0467
     46 CE1         8.9880   -5.4545    0.0000 C.ar    2  PHE2       -0.0615
     47 CE2        10.0679   -4.1003    0.0000 C.ar    2  PHE2       -0.0615
     48 CE3         2.6678   -2.4674    0.0000 C.ar    3  TRP3       -0.0523
     49 CZ2         3.2892   -4.3684    0.0000 C.ar    3  TRP3       -0.0378
     50 CZ          9.9189   -5.0892    0.0000 C.ar    2  PHE2       -0.0617
     51 CZ3         2.0000   -3.2116    0.0000 C.ar    3  TRP3       -0.0611
     52 CH2         2.3107   -4.1622    0.0000 C.ar    3  TRP3       -0.0598
     53 HA          9.9261   -0.7487    0.0000 H       1  PRO1        0.0597
     54 HB1        10.5043   -2.4867    0.0000 H       1  PRO1        0.0288
     55 HB2        11.2814   -2.7768    0.0000 H       1  PRO1        0.0288
     56 HG1        12.1138   -2.5463    0.0000 H       1  PRO1        0.0281
     57 HG2        12.6309   -1.8978    0.0000 H       1  PRO1        0.0281
     58 HD1        12.6704   -1.0350    0.0000 H       1  PRO1        0.0465
     59 HD2        12.2147   -0.3419    0.0000 H       1  PRO1        0.0465
     60 HA          9.6334    3.1569    0.0000 H       6  PRO6        0.0597
     61 HB1        11.1992    4.1074    0.0000 H       6  PRO6        0.0288
     62 HB2        11.3091    4.9295    0.0000 H       6  PRO6        0.0288
     63 HG1        10.8991    5.6898    0.0000 H       6  PRO6        0.0281
     64 HG2        10.1518    6.0497    0.0000 H       6  PRO6        0.0281
     65 HD1         9.3018    5.8962    0.0000 H       6  PRO6        0.0465
     66 HD2         8.7276    5.2977    0.0000 H       6  PRO6        0.0465
     67 HA         11.9360    1.8370    0.0000 H       7  ALA7        0.0592
     68 H          11.9224    2.5396    0.0000 H       7  ALA7        0.1495
     69 H           8.8148   -2.8429    0.0000 H       2  PHE2        0.1495
     70 HA          8.1268   -2.6998    0.0000 H       2  PHE2        0.0598
     71 HB1        12.6113    0.7946    0.0000 H       7  ALA7        0.0252
     72 HB2        13.1833    1.4592    0.0000 H       7  ALA7        0.0252
     73 HB3        12.5187    2.0311    0.0000 H       7  ALA7        0.0252
     74 HA1         7.4015    4.8900    0.0000 H       5  GLY5        0.0558
     75 HA2         7.4163    3.7007    0.0000 H       5  GLY5        0.0558
     76 HB1         6.9856   -3.0212    0.0000 H       2  PHE2        0.0336
     77 HB2         7.2768   -3.7632    0.0000 H       2  PHE2        0.0336
     78 HA          5.2018   -1.1992    0.0000 H       3  TRP3        0.0598
     79 H           5.5189   -1.8263    0.0000 H       3  TRP3        0.1495
     80 H           5.9834    4.3715    0.0000 H       5  GLY5        0.1492
     81 HB1         4.2390   -0.5074    0.0000 H       3  TRP3        0.0337
     82 HB2         3.8405   -1.1976    0.0000 H       3  TRP3        0.0337
     83 HA1         4.7376    2.8164    0.0000 H       4  GLY4        0.0558
     84 HA2         5.6767    2.0865    0.0000 H       4  GLY4        0.0558
     85 HD1         7.6290   -5.0575    0.0000 H       2  PHE2        0.0620
     86 HD2         9.3785   -2.8638    0.0000 H       2  PHE2        0.0620
     87 H           4.2588    1.3844    0.0000 H       4  GLY4        0.1492
     88 HD1         5.8451   -2.4810    0.0000 H       3  TRP3        0.0810
     89 HE1         5.3172   -4.1201    0.0000 H       3  TRP3        0.1653
     90 HE1         8.8956   -6.0676    0.0000 H       2  PHE2        0.0618
     91 HE2        10.6450   -3.8738    0.0000 H       2  PHE2        0.0618
     92 HE3         2.4752   -1.8780    0.0000 H       3  TRP3        0.0624
     93 HZ2         3.4818   -4.9577    0.0000 H       3  TRP3        0.0638
     94 HZ         10.4036   -5.4757    0.0000 H       2  PHE2        0.0618
     95 HZ3         1.3933   -3.0838    0.0000 H       3  TRP3        0.0618
     96 HH2         1.8966   -4.6236    0.0000 H       3  TRP3        0.0618
@<TRIPOS>BOND
     1     1    24    2
     2     2    26    2
     3     3    27    2
     4     4    28    2
     5     5    33    2
     6     6    38    2
     7     7    39    2
     8     8    16    1
     9     8    19    1
    10     8    24   am
    11     9    20    1
    12     9    23    1
    13     9    28   am
    14    10    25    1
    15    10    27   am
    16    10    68    1
    17    11    26   am
    18    11    29    1
    19    11    69    1
    20    12    33   am
    21    12    34    1
    22    12    79    1
    23    13    31    1
    24    13    39   am
    25    13    80    1
    26    14    38   am
    27    14    40    1
    28    14    87    1
    29    15    44   ar
    30    15    45   ar
    31    15    89    1
    32    16    17    1
    33    16    26    1
    34    16    53    1
    35    17    18    1
    36    17    54    1
    37    17    55    1
    38    18    19    1
    39    18    56    1
    40    18    57    1
    41    19    58    1
    42    19    59    1
    43    20    21    1
    44    20    27    1
    45    20    60    1
    46    21    22    1
    47    21    61    1
    48    21    62    1
    49    22    23    1
    50    22    63    1
    51    22    64    1
    52    23    65    1
    53    23    66    1
    54    24    25    1
    55    25    30    1
    56    25    67    1
    57    28    31    1
    58    29    32    1
    59    29    33    1
    60    29    70    1
    61    30    71    1
    62    30    72    1
    63    30    73    1
    64    31    74    1
    65    31    75    1
    66    32    35    1
    67    32    76    1
    68    32    77    1
    69    34    36    1
    70    34    38    1
    71    34    78    1
    72    35    42   ar
    73    35    43   ar
    74    36    37    1
    75    36    81    1
    76    36    82    1
    77    37    41   ar
    78    37    44   ar
    79    39    40    1
    80    40    83    1
    81    40    84    1
    82    41    45   ar
    83    41    48   ar
    84    42    46   ar
    85    42    85    1
    86    43    47   ar
    87    43    86    1
    88    44    88    1
    89    45    49   ar
    90    46    50   ar
    91    46    90    1
    92    47    50   ar
    93    47    91    1
    94    48    51   ar
    95    48    92    1
    96    49    52   ar
    97    49    93    1
    98    50    94    1
    99    51    52   ar
   100    51    95    1
   101    52    96    1
