@<TRIPOS>MOLECULE
IMPHY003970
 116 123 0 0 0
SMALL
GASTEIGER

@<TRIPOS>ATOM
      1 O           8.2902    5.5403    0.0000 O.3     1  UNL1       -0.3448
      2 O           6.5177    6.4351    0.0000 O.3     1  UNL1       -0.3480
      3 O           6.8671   -2.7038    0.0000 O.3     1  UNL1       -0.3454
      4 O           5.1350   -2.7038    0.0000 O.3     1  UNL1       -0.3405
      5 O           6.8671   -4.7038    0.0000 O.3     1  UNL1       -0.3378
      6 O           5.1350   -5.7038    0.0000 O.3     1  UNL1       -0.3864
      7 O           3.4030   -4.7038    0.0000 O.3     1  UNL1       -0.3865
      8 O           6.0010   -6.2038    0.0000 O.3     1  UNL1       -0.3405
      9 O           2.5369   -3.2038    0.0000 O.3     1  UNL1       -0.3924
     10 O           8.5991   -5.7038    0.0000 O.3     1  UNL1       -0.3841
     11 O           8.5991   -7.7038    0.0000 O.3     1  UNL1       -0.3864
     12 O           6.8671   -8.7038    0.0000 O.3     1  UNL1       -0.3865
     13 O           4.2690   -7.2038    0.0000 O.3     1  UNL1       -0.3924
     14 C           6.8963    3.4931    0.0000 C.3     1  UNL1       -0.0233
     15 C           7.7643    2.9965    0.0000 C.3     1  UNL1       -0.0298
     16 C           7.7681    1.9965    0.0000 C.3     1  UNL1       -0.0343
     17 C           7.1018    4.4657    0.0000 C.3     1  UNL1       -0.0015
     18 C           6.9040    1.4931    0.0000 C.3     1  UNL1       -0.0323
     19 C           8.0901    4.5726    0.0000 C.3     1  UNL1        0.0660
     20 C           6.8920    0.4516    0.0000 C.3     1  UNL1       -0.0260
     21 C           8.4987    3.6664    0.0000 C.3     1  UNL1       -0.0226
     22 C           6.0322    2.9898    0.0000 C.3     1  UNL1       -0.0467
     23 C           6.0361    1.9898    0.0000 C.3     1  UNL1       -0.0489
     24 C           6.6995    5.3683    0.0000 C.3     1  UNL1        0.0160
     25 C           7.7920   -0.0727    0.0000 C.3     1  UNL1       -0.0330
     26 C           8.6801    1.4931    0.0000 C.3     1  UNL1       -0.0494
     27 C           7.4324    6.0311    0.0000 C.3     1  UNL1        0.1732
     28 C           8.6921    0.4516    0.0000 C.3     1  UNL1       -0.0494
     29 C           6.0284    3.9898    0.0000 C.3     1  UNL1       -0.0590
     30 C           5.9421   -0.0727    0.0000 C.3     1  UNL1       -0.0448
     31 C           7.8046   -1.1576    0.0000 C.3     1  UNL1       -0.0232
     32 C           6.0279    0.9549    0.0000 C.3     1  UNL1       -0.0590
     33 C           5.9295   -1.1576    0.0000 C.3     1  UNL1       -0.0260
     34 C           5.7211    5.5750    0.0000 C.3     1  UNL1       -0.0572
     35 C           6.8671   -1.7038    0.0000 C.3     1  UNL1        0.0621
     36 C           8.2397    6.6213    0.0000 C.3     1  UNL1        0.0020
     37 C           8.1322    7.6155    0.0000 C.3     1  UNL1       -0.0435
     38 C           6.4102    7.4293    0.0000 C.3     1  UNL1        0.0535
     39 C           7.2174    8.0195    0.0000 C.3     1  UNL1       -0.0201
     40 C           7.1100    9.0138    0.0000 C.3     1  UNL1       -0.0603
     41 C           6.0010   -3.2038    0.0000 C.3     1  UNL1        0.1886
     42 C           6.0010   -4.2038    0.0000 C.3     1  UNL1        0.1406
     43 C           5.1350   -4.7038    0.0000 C.3     1  UNL1        0.1144
     44 C           4.2690   -3.2038    0.0000 C.3     1  UNL1        0.1130
     45 C           4.2690   -4.2038    0.0000 C.3     1  UNL1        0.1119
     46 C           3.4030   -2.7038    0.0000 C.3     1  UNL1        0.0730
     47 C           6.8671   -5.7038    0.0000 C.3     1  UNL1        0.1885
     48 C           7.7331   -6.2038    0.0000 C.3     1  UNL1        0.1341
     49 C           7.7331   -7.2038    0.0000 C.3     1  UNL1        0.1141
     50 C           6.0010   -7.2038    0.0000 C.3     1  UNL1        0.1130
     51 C           6.8671   -7.7038    0.0000 C.3     1  UNL1        0.1119
     52 C           5.1350   -7.7038    0.0000 C.3     1  UNL1        0.0730
     53 H           8.5426    2.6548    0.0000 H       1  UNL1        0.0310
     54 H           8.4993    2.4300    0.0000 H       1  UNL1        0.0306
     55 H           6.2565    4.3762    0.0000 H       1  UNL1        0.0335
     56 H           7.6385    1.0653    0.0000 H       1  UNL1        0.0309
     57 H           8.9350    4.6658    0.0000 H       1  UNL1        0.0600
     58 H           8.8661    3.1670    0.0000 H       1  UNL1        0.0293
     59 H           9.0340    3.9792    0.0000 H       1  UNL1        0.0293
     60 H           5.8179    3.5716    0.0000 H       1  UNL1        0.0271
     61 H           5.4221    2.8798    0.0000 H       1  UNL1        0.0271
     62 H           5.4251    2.0951    0.0000 H       1  UNL1        0.0268
     63 H           5.8263    1.4064    0.0000 H       1  UNL1        0.0268
     64 H           6.3097    4.8862    0.0000 H       1  UNL1        0.0354
     65 H           8.5314   -0.4920    0.0000 H       1  UNL1        0.0307
     66 H           9.2921    1.3941    0.0000 H       1  UNL1        0.0268
     67 H           8.8824    2.0792    0.0000 H       1  UNL1        0.0268
     68 H           8.9079   -0.1297    0.0000 H       1  UNL1        0.0268
     69 H           9.3017    0.5647    0.0000 H       1  UNL1        0.0268
     70 H           6.3363    4.5279    0.0000 H       1  UNL1        0.0235
     71 H           5.4902    4.2977    0.0000 H       1  UNL1        0.0235
     72 H           5.7204    3.4517    0.0000 H       1  UNL1        0.0235
     73 H           5.7398    0.5134    0.0000 H       1  UNL1        0.0271
     74 H           5.3300   -0.1717    0.0000 H       1  UNL1        0.0271
     75 H           8.0204   -1.7389    0.0000 H       1  UNL1        0.0293
     76 H           8.4142   -1.0445    0.0000 H       1  UNL1        0.0293
     77 H           6.3400    1.4906    0.0000 H       1  UNL1        0.0235
     78 H           5.4922    1.2670    0.0000 H       1  UNL1        0.0235
     79 H           5.7158    0.4192    0.0000 H       1  UNL1        0.0235
     80 H           5.3199   -1.0445    0.0000 H       1  UNL1        0.0290
     81 H           5.7137   -1.7389    0.0000 H       1  UNL1        0.0290
     82 H           5.8492    6.1816    0.0000 H       1  UNL1        0.0234
     83 H           5.1145    5.7032    0.0000 H       1  UNL1        0.0234
     84 H           5.5929    4.9684    0.0000 H       1  UNL1        0.0234
     85 H           7.4046   -2.0127    0.0000 H       1  UNL1        0.0597
     86 H           8.5132    6.0649    0.0000 H       1  UNL1        0.0317
     87 H           8.8352    6.7940    0.0000 H       1  UNL1        0.0317
     88 H           8.7508    7.5741    0.0000 H       1  UNL1        0.0270
     89 H           8.2804    8.2176    0.0000 H       1  UNL1        0.0270
     90 H           6.1367    7.9858    0.0000 H       1  UNL1        0.0563
     91 H           5.8147    7.2567    0.0000 H       1  UNL1        0.0563
     92 H           7.7180    8.3855    0.0000 H       1  UNL1        0.0320
     93 H           7.7264    9.0804    0.0000 H       1  UNL1        0.0233
     94 H           7.0433    9.6302    0.0000 H       1  UNL1        0.0233
     95 H           6.4935    8.9471    0.0000 H       1  UNL1        0.0233
     96 H           6.0010   -2.5838    0.0000 H       1  UNL1        0.0938
     97 H           6.0010   -4.8238    0.0000 H       1  UNL1        0.0675
     98 H           4.5981   -5.0138    0.0000 H       1  UNL1        0.0648
     99 H           4.2690   -2.5838    0.0000 H       1  UNL1        0.0647
    100 H           3.7320   -3.8938    0.0000 H       1  UNL1        0.0647
    101 H           3.8015   -2.2288    0.0000 H       1  UNL1        0.0584
    102 H           3.0044   -2.2288    0.0000 H       1  UNL1        0.0584
    103 H           7.4040   -5.3938    0.0000 H       1  UNL1        0.0938
    104 H           4.5981   -6.0138    0.0000 H       1  UNL1        0.2100
    105 H           3.4030   -5.3238    0.0000 H       1  UNL1        0.2100
    106 H           8.2700   -6.5138    0.0000 H       1  UNL1        0.0671
    107 H           2.0000   -2.8938    0.0000 H       1  UNL1        0.2095
    108 H           7.7331   -7.8238    0.0000 H       1  UNL1        0.0648
    109 H           5.4641   -6.8938    0.0000 H       1  UNL1        0.0647
    110 H           6.3301   -8.0138    0.0000 H       1  UNL1        0.0647
    111 H           9.1360   -6.0138    0.0000 H       1  UNL1        0.2101
    112 H           4.7365   -8.1787    0.0000 H       1  UNL1        0.0584
    113 H           5.5335   -8.1787    0.0000 H       1  UNL1        0.0584
    114 H           8.5991   -8.3238    0.0000 H       1  UNL1        0.2100
    115 H           6.3301   -9.0138    0.0000 H       1  UNL1        0.2100
    116 H           3.7320   -7.5138    0.0000 H       1  UNL1        0.2095
@<TRIPOS>BOND
     1     1    19    1
     2    27     1    1
     3     2    27    1
     4     2    38    1
     5    35     3    1
     6    41     3    1
     7     4    41    1
     8     4    44    1
     9    42     5    1
    10    47     5    1
    11    43     6    1
    12     6   104    1
    13    45     7    1
    14     7   105    1
    15     8    47    1
    16     8    50    1
    17     9    46    1
    18     9   107    1
    19    48    10    1
    20    10   111    1
    21    49    11    1
    22    11   114    1
    23    51    12    1
    24    12   115    1
    25    13    52    1
    26    13   116    1
    27    14    15    1
    28    14    17    1
    29    14    22    1
    30    14    29    1
    31    15    16    1
    32    15    21    1
    33    15    53    1
    34    16    18    1
    35    16    26    1
    36    16    54    1
    37    17    19    1
    38    17    24    1
    39    17    55    1
    40    18    20    1
    41    18    23    1
    42    18    56    1
    43    19    21    1
    44    19    57    1
    45    20    25    1
    46    20    30    1
    47    20    32    1
    48    21    58    1
    49    21    59    1
    50    22    23    1
    51    22    60    1
    52    22    61    1
    53    23    62    1
    54    23    63    1
    55    24    27    1
    56    24    34    1
    57    24    64    1
    58    25    28    1
    59    25    31    1
    60    25    65    1
    61    26    28    1
    62    26    66    1
    63    26    67    1
    64    27    36    1
    65    28    68    1
    66    28    69    1
    67    29    70    1
    68    29    71    1
    69    29    72    1
    70    30    33    1
    71    30    73    1
    72    30    74    1
    73    31    35    1
    74    31    75    1
    75    31    76    1
    76    32    77    1
    77    32    78    1
    78    32    79    1
    79    33    35    1
    80    33    80    1
    81    33    81    1
    82    34    82    1
    83    34    83    1
    84    34    84    1
    85    35    85    1
    86    36    37    1
    87    36    86    1
    88    36    87    1
    89    37    39    1
    90    37    88    1
    91    37    89    1
    92    38    39    1
    93    38    90    1
    94    38    91    1
    95    39    40    1
    96    39    92    1
    97    40    93    1
    98    40    94    1
    99    40    95    1
   100    41    42    1
   101    41    96    1
   102    42    43    1
   103    42    97    1
   104    43    45    1
   105    43    98    1
   106    44    45    1
   107    44    46    1
   108    44    99    1
   109    45   100    1
   110    46   101    1
   111    46   102    1
   112    47    48    1
   113    47   103    1
   114    48    49    1
   115    48   106    1
   116    49    51    1
   117    49   108    1
   118    50    51    1
   119    50    52    1
   120    50   109    1
   121    51   110    1
   122    52   112    1
   123    52   113    1
