@<TRIPOS>MOLECULE
IMPHY012253
 51 54 0 0 0
SMALL
GASTEIGER

@<TRIPOS>ATOM
      1 O           8.0650    3.3718    0.0000 O.3     1  UNL1       -0.4532
      2 O           6.8671   -0.7031    0.0000 O.3     1  UNL1       -0.3093
      3 O           6.0010    0.7969    0.0000 O.2     1  UNL1       -0.4699
      4 O           5.1350   -0.7031    0.0000 O.3     1  UNL1       -0.3404
      5 O           6.8671   -2.7031    0.0000 O.3     1  UNL1       -0.3841
      6 O          10.2854    0.0120    0.0000 O.3     1  UNL1       -0.4604
      7 O           5.1350   -3.7031    0.0000 O.3     1  UNL1       -0.3864
      8 O           3.4030   -2.7031    0.0000 O.3     1  UNL1       -0.3865
      9 O           6.4084    4.0131    0.0000 O.2     1  UNL1       -0.2452
     10 O           2.5369   -1.2031    0.0000 O.3     1  UNL1       -0.3924
     11 O          10.3780   -1.7176    0.0000 O.2     1  UNL1       -0.2512
     12 C           7.7331    1.7969    0.0000 C.3     1  UNL1        0.0469
     13 C           7.7331    0.7969    0.0000 C.3     1  UNL1        0.0567
     14 C           8.4701    2.4640    0.0000 C.3     1  UNL1        0.1297
     15 C           6.8671    0.2969    0.0000 C.3     1  UNL1        0.2107
     16 C           8.7412    0.7966    0.0000 C.2     1  UNL1       -0.0234
     17 C           6.8671    2.2969    0.0000 C.2     1  UNL1        0.0784
     18 C           9.1489    1.7186    0.0000 C.2     1  UNL1       -0.0404
     19 C           6.0010   -1.2031    0.0000 C.3     1  UNL1        0.1918
     20 C           7.0763    3.2688    0.0000 C.2     1  UNL1        0.3391
     21 C           6.0010   -2.2031    0.0000 C.3     1  UNL1        0.1342
     22 C           6.0010    1.7969    0.0000 C.2     1  UNL1        0.0983
     23 C           9.2868   -0.0415    0.0000 C.3     1  UNL1        0.1142
     24 C           5.1350   -2.7031    0.0000 C.3     1  UNL1        0.1141
     25 C           4.2690   -2.2031    0.0000 C.3     1  UNL1        0.1119
     26 C           4.2690   -1.2031    0.0000 C.3     1  UNL1        0.1130
     27 C           3.4030   -0.7031    0.0000 C.3     1  UNL1        0.0730
     28 C          10.8310   -0.8261    0.0000 C.2     1  UNL1        0.3042
     29 C          11.8295   -0.7726    0.0000 C.3     1  UNL1        0.0332
     30 H           7.7331    2.6469    0.0000 H       1  UNL1        0.0399
     31 H           7.9529   -0.0241    0.0000 H       1  UNL1        0.0415
     32 H           9.1815    2.9293    0.0000 H       1  UNL1        0.0786
     33 H           7.4040   -0.0131    0.0000 H       1  UNL1        0.1062
     34 H           9.7608    1.8181    0.0000 H       1  UNL1        0.0609
     35 H           6.0010   -0.5831    0.0000 H       1  UNL1        0.0939
     36 H           6.0010   -2.8231    0.0000 H       1  UNL1        0.0671
     37 H           5.4641    2.1069    0.0000 H       1  UNL1        0.1029
     38 H           4.5981   -3.0131    0.0000 H       1  UNL1        0.0648
     39 H           8.7164   -0.2844    0.0000 H       1  UNL1        0.0745
     40 H           9.4270   -0.6454    0.0000 H       1  UNL1        0.0745
     41 H           4.2690   -2.8231    0.0000 H       1  UNL1        0.0647
     42 H           4.2690   -0.5831    0.0000 H       1  UNL1        0.0647
     43 H           3.8015   -0.2281    0.0000 H       1  UNL1        0.0584
     44 H           3.0044   -0.2281    0.0000 H       1  UNL1        0.0584
     45 H           6.8671   -3.3231    0.0000 H       1  UNL1        0.2101
     46 H           4.5981   -4.0131    0.0000 H       1  UNL1        0.2100
     47 H           3.4030   -3.3231    0.0000 H       1  UNL1        0.2100
     48 H           2.0000   -0.8931    0.0000 H       1  UNL1        0.2095
     49 H          11.8627   -1.3918    0.0000 H       1  UNL1        0.0342
     50 H          12.4486   -0.7395    0.0000 H       1  UNL1        0.0342
     51 H          11.7964   -0.1535    0.0000 H       1  UNL1        0.0342
@<TRIPOS>BOND
     1     1    14    1
     2     1    20    1
     3    15     2    1
     4    19     2    1
     5     3    15    1
     6     3    22    1
     7     4    19    1
     8     4    26    1
     9    21     5    1
    10     5    45    1
    11     6    23    1
    12     6    28    1
    13    24     7    1
    14     7    46    1
    15    25     8    1
    16     8    47    1
    17     9    20    2
    18    10    27    1
    19    10    48    1
    20    11    28    2
    21    12    13    1
    22    12    14    1
    23    12    17    1
    24    12    30    1
    25    13    15    1
    26    13    16    1
    27    13    31    1
    28    14    18    1
    29    14    32    1
    30    15    33    1
    31    16    18    2
    32    16    23    1
    33    17    20    1
    34    17    22    2
    35    18    34    1
    36    19    21    1
    37    19    35    1
    38    21    24    1
    39    21    36    1
    40    22    37    1
    41    23    39    1
    42    23    40    1
    43    24    25    1
    44    24    38    1
    45    25    26    1
    46    25    41    1
    47    26    27    1
    48    26    42    1
    49    27    43    1
    50    27    44    1
    51    28    29    1
    52    29    49    1
    53    29    50    1
    54    29    51    1
