@<TRIPOS>MOLECULE
IMPHY014501
 54 57 0 0 0
SMALL
GASTEIGER

@<TRIPOS>ATOM
      1 O           5.8562   -2.0360    0.0000 O.3     1  UNL1       -0.3917
      2 O           3.2038   -3.4875    0.0000 O.3     1  UNL1       -0.3945
      3 C           3.7706    0.9535    0.0000 C.3     1  UNL1       -0.0167
      4 C           3.8644   -0.0839    0.0000 C.3     1  UNL1       -0.0201
      5 C           3.0083   -0.6773    0.0000 C.3     1  UNL1       -0.0274
      6 C           2.8696    1.3874    0.0000 C.3     1  UNL1       -0.0165
      7 C           3.6637    2.1303    0.0000 C.3     1  UNL1       -0.0398
      8 C           4.6715    1.3874    0.0000 C.3     1  UNL1       -0.0458
      9 C           3.0810   -1.7598    0.0000 C.3     1  UNL1       -0.0033
     10 C           4.2706    3.1441    0.0000 C.3     1  UNL1       -0.0196
     11 C           4.8526   -0.5319    0.0000 C.3     1  UNL1       -0.0206
     12 C           2.0698   -0.2253    0.0000 C.3     1  UNL1       -0.0486
     13 C           2.0000    0.8139    0.0000 C.3     1  UNL1       -0.0459
     14 C           4.8940    2.3623    0.0000 C.3     1  UNL1       -0.0460
     15 C           4.6863    0.4858    0.0000 C.3     1  UNL1       -0.0587
     16 C           4.0586   -2.2306    0.0000 C.3     1  UNL1       -0.0191
     17 C           4.9503   -1.6125    0.0000 C.3     1  UNL1        0.0564
     18 C           2.6471    2.3623    0.0000 C.2     1  UNL1       -0.0811
     19 C           3.2706    3.1441    0.0000 C.2     1  UNL1       -0.0731
     20 C           2.6437   -2.6591    0.0000 C.3     1  UNL1        0.0499
     21 C           2.0836   -1.8307    0.0000 C.3     1  UNL1       -0.0571
     22 C           2.8367    4.0451    0.0000 C.3     1  UNL1       -0.0435
     23 H           2.3042   -1.1534    0.0000 H       1  UNL1        0.0312
     24 H           2.1038    1.7562    0.0000 H       1  UNL1        0.0349
     25 H           3.2559    2.5973    0.0000 H       1  UNL1        0.0277
     26 H           3.0937    1.8864    0.0000 H       1  UNL1        0.0277
     27 H           4.8095    0.7829    0.0000 H       1  UNL1        0.0271
     28 H           5.2915    1.3874    0.0000 H       1  UNL1        0.0271
     29 H           4.4597    3.9728    0.0000 H       1  UNL1        0.0346
     30 H           5.4705   -0.5826    0.0000 H       1  UNL1        0.0296
     31 H           5.0082    0.0682    0.0000 H       1  UNL1        0.0296
     32 H           1.4532   -0.1604    0.0000 H       1  UNL1        0.0268
     33 H           1.9004   -0.8217    0.0000 H       1  UNL1        0.0268
     34 H           1.7523    1.3823    0.0000 H       1  UNL1        0.0271
     35 H           1.3976    0.6671    0.0000 H       1  UNL1        0.0271
     36 H           5.4526    2.0933    0.0000 H       1  UNL1        0.0271
     37 H           5.2806    2.8470    0.0000 H       1  UNL1        0.0271
     38 H           5.0395   -0.0238    0.0000 H       1  UNL1        0.0235
     39 H           5.1958    0.8390    0.0000 H       1  UNL1        0.0235
     40 H           4.3331    0.9953    0.0000 H       1  UNL1        0.0235
     41 H           3.6980   -2.7349    0.0000 H       1  UNL1        0.0296
     42 H           4.4938   -2.6722    0.0000 H       1  UNL1        0.0296
     43 H           5.0026   -2.2303    0.0000 H       1  UNL1        0.0593
     44 H           2.0426    2.5003    0.0000 H       1  UNL1        0.0575
     45 H           2.1417   -2.2953    0.0000 H       1  UNL1        0.0563
     46 H           2.1982   -3.0903    0.0000 H       1  UNL1        0.0563
     47 H           2.0396   -1.2123    0.0000 H       1  UNL1        0.0236
     48 H           1.4651   -1.8747    0.0000 H       1  UNL1        0.0236
     49 H           2.1275   -2.4492    0.0000 H       1  UNL1        0.0236
     50 H           3.3953    4.3141    0.0000 H       1  UNL1        0.0274
     51 H           2.5677    4.6037    0.0000 H       1  UNL1        0.0274
     52 H           2.2781    3.7761    0.0000 H       1  UNL1        0.0274
     53 H           5.9097   -2.6536    0.0000 H       1  UNL1        0.2098
     54 H           2.9327   -4.0451    0.0000 H       1  UNL1        0.2094
@<TRIPOS>BOND
     1    17     1    1
     2     1    53    1
     3     2    20    1
     4     2    54    1
     5     3     4    1
     6     3     6    1
     7     3     7    1
     8     3     8    1
     9     4     5    1
    10     4    11    1
    11     4    15    1
    12     5     9    1
    13     5    12    1
    14     5    23    1
    15     6    13    1
    16     6    18    1
    17     6    24    1
    18     7    10    1
    19     7    25    1
    20     7    26    1
    21     8    14    1
    22     8    27    1
    23     8    28    1
    24     9    16    1
    25     9    20    1
    26     9    21    1
    27    10    14    1
    28    10    19    1
    29    10    29    1
    30    11    17    1
    31    11    30    1
    32    11    31    1
    33    12    13    1
    34    12    32    1
    35    12    33    1
    36    13    34    1
    37    13    35    1
    38    14    36    1
    39    14    37    1
    40    15    38    1
    41    15    39    1
    42    15    40    1
    43    16    17    1
    44    16    41    1
    45    16    42    1
    46    17    43    1
    47    18    19    2
    48    18    44    1
    49    19    22    1
    50    20    45    1
    51    20    46    1
    52    21    47    1
    53    21    48    1
    54    21    49    1
    55    22    50    1
    56    22    51    1
    57    22    52    1
