@<TRIPOS>MOLECULE
IMPHY007638
 66 69 0 0 0
SMALL
GASTEIGER

@<TRIPOS>ATOM
      1 O           6.0010    0.4050    0.0000 O.2     1  UNL1       -0.4702
      2 O          10.2629    0.9050    0.0000 O.3     1  UNL1       -0.4550
      3 O           6.8671   -1.0950    0.0000 O.3     1  UNL1       -0.3096
      4 O           8.9900    2.6602    0.0000 O.3     1  UNL1       -0.3875
      5 O           5.1350   -1.0950    0.0000 O.3     1  UNL1       -0.3404
      6 O           6.0010    3.4050    0.0000 O.3     1  UNL1       -0.4646
      7 O           6.8671   -3.0950    0.0000 O.3     1  UNL1       -0.3841
      8 O           7.7331    3.4050    0.0000 O.2     1  UNL1       -0.2452
      9 O           5.1350   -4.0950    0.0000 O.3     1  UNL1       -0.3864
     10 O           3.4030   -3.0950    0.0000 O.3     1  UNL1       -0.3865
     11 O          10.2629    2.6370    0.0000 O.2     1  UNL1       -0.2449
     12 O           2.5369   -1.5950    0.0000 O.3     1  UNL1       -0.3924
     13 C           7.7331    0.4050    0.0000 C.3     1  UNL1        0.0373
     14 C           7.7331    1.4050    0.0000 C.3     1  UNL1        0.0321
     15 C           8.6793    0.1003    0.0000 C.3     1  UNL1        0.0050
     16 C           9.2629    0.9050    0.0000 C.3     1  UNL1        0.1327
     17 C           8.6793    1.7097    0.0000 C.3     1  UNL1        0.0999
     18 C           6.8671   -0.0950    0.0000 C.3     1  UNL1        0.2073
     19 C           6.8671    1.9050    0.0000 C.2     1  UNL1        0.0768
     20 C           8.9900   -0.8503    0.0000 C.3     1  UNL1       -0.0585
     21 C           6.0010    1.4050    0.0000 C.2     1  UNL1        0.0982
     22 C           6.0010   -1.5950    0.0000 C.3     1  UNL1        0.1918
     23 C           6.8671    2.9050    0.0000 C.2     1  UNL1        0.3382
     24 C           6.0010   -2.5950    0.0000 C.3     1  UNL1        0.1342
     25 C           5.1350   -3.0950    0.0000 C.3     1  UNL1        0.1141
     26 C           4.2690   -2.5950    0.0000 C.3     1  UNL1        0.1119
     27 C           4.2690   -1.5950    0.0000 C.3     1  UNL1        0.1130
     28 C          10.7629    1.7710    0.0000 C.2     1  UNL1        0.3395
     29 C           3.4030   -1.0950    0.0000 C.3     1  UNL1        0.0730
     30 C          11.7629    1.7710    0.0000 C.ar    1  UNL1        0.0590
     31 C           6.0010    4.4050    0.0000 C.3     1  UNL1        0.0820
     32 C          12.2629    0.9050    0.0000 C.ar    1  UNL1       -0.0478
     33 C          12.2629    2.6370    0.0000 C.ar    1  UNL1       -0.0478
     34 C          13.2629    0.9050    0.0000 C.ar    1  UNL1       -0.0610
     35 C          13.2629    2.6370    0.0000 C.ar    1  UNL1       -0.0610
     36 C          13.7629    1.7710    0.0000 C.ar    1  UNL1       -0.0617
     37 H           7.8230   -0.4402    0.0000 H       1  UNL1        0.0372
     38 H           7.8230    2.2502    0.0000 H       1  UNL1        0.0383
     39 H           8.2418   -0.3391    0.0000 H       1  UNL1        0.0339
     40 H           9.5446    1.4573    0.0000 H       1  UNL1        0.0763
     41 H           8.2418    2.1491    0.0000 H       1  UNL1        0.0636
     42 H           7.4040   -0.4050    0.0000 H       1  UNL1        0.1059
     43 H           8.4006   -1.0429    0.0000 H       1  UNL1        0.0234
     44 H           9.1826   -1.4396    0.0000 H       1  UNL1        0.0234
     45 H           9.5793   -0.6576    0.0000 H       1  UNL1        0.0234
     46 H           5.4641    1.7150    0.0000 H       1  UNL1        0.1029
     47 H           9.5966    2.7881    0.0000 H       1  UNL1        0.2100
     48 H           6.0010   -0.9750    0.0000 H       1  UNL1        0.0939
     49 H           6.0010   -3.2150    0.0000 H       1  UNL1        0.0671
     50 H           4.5981   -3.4050    0.0000 H       1  UNL1        0.0648
     51 H           3.7320   -2.2850    0.0000 H       1  UNL1        0.0647
     52 H           4.2690   -0.9750    0.0000 H       1  UNL1        0.0647
     53 H           3.8015   -0.6201    0.0000 H       1  UNL1        0.0584
     54 H           3.0044   -0.6201    0.0000 H       1  UNL1        0.0584
     55 H           6.8671   -3.7150    0.0000 H       1  UNL1        0.2101
     56 H           4.5981   -4.4050    0.0000 H       1  UNL1        0.2100
     57 H           3.4030   -3.7150    0.0000 H       1  UNL1        0.2100
     58 H           6.6210    4.4050    0.0000 H       1  UNL1        0.0661
     59 H           6.0010    5.0250    0.0000 H       1  UNL1        0.0661
     60 H           5.3810    4.4050    0.0000 H       1  UNL1        0.0661
     61 H          11.9529    0.3681    0.0000 H       1  UNL1        0.0626
     62 H          11.9529    3.1740    0.0000 H       1  UNL1        0.0626
     63 H           2.0000   -1.2850    0.0000 H       1  UNL1        0.2095
     64 H          13.5729    0.3681    0.0000 H       1  UNL1        0.0618
     65 H          13.5729    3.1740    0.0000 H       1  UNL1        0.0618
     66 H          14.3829    1.7710    0.0000 H       1  UNL1        0.0618
@<TRIPOS>BOND
     1     1    18    1
     2     1    21    1
     3    16     2    1
     4     2    28    1
     5    18     3    1
     6    22     3    1
     7    17     4    1
     8     4    47    1
     9     5    22    1
    10     5    27    1
    11     6    23    1
    12     6    31    1
    13    24     7    1
    14     7    55    1
    15     8    23    2
    16    25     9    1
    17     9    56    1
    18    26    10    1
    19    10    57    1
    20    11    28    2
    21    12    29    1
    22    12    63    1
    23    13    14    1
    24    13    15    1
    25    13    18    1
    26    13    37    1
    27    14    17    1
    28    14    19    1
    29    14    38    1
    30    15    16    1
    31    15    20    1
    32    15    39    1
    33    16    17    1
    34    16    40    1
    35    17    41    1
    36    18    42    1
    37    19    21    2
    38    19    23    1
    39    20    43    1
    40    20    44    1
    41    20    45    1
    42    21    46    1
    43    22    24    1
    44    22    48    1
    45    24    25    1
    46    24    49    1
    47    25    26    1
    48    25    50    1
    49    26    27    1
    50    26    51    1
    51    27    29    1
    52    27    52    1
    53    28    30    1
    54    29    53    1
    55    29    54    1
    56    30    32   ar
    57    30    33   ar
    58    31    58    1
    59    31    59    1
    60    31    60    1
    61    32    34   ar
    62    32    61    1
    63    33    35   ar
    64    33    62    1
    65    34    36   ar
    66    34    64    1
    67    35    36   ar
    68    35    65    1
    69    36    66    1
