@<TRIPOS>MOLECULE
IMPHY017101
 52 54 0 0 0
SMALL
GASTEIGER

@<TRIPOS>ATOM
      1 C           3.8000   -0.4370    0.0000 C.3     1  UNL1       -0.0075
      2 C           3.8000   -1.4370    0.0000 C.3     1  UNL1       -0.0268
      3 C           2.9061   -1.9717    0.0000 C.3     1  UNL1       -0.0313
      4 C           4.6660    0.0630    0.0000 C.2     1  UNL1       -0.0641
      5 C           5.5321   -0.4370    0.0000 C.3     1  UNL1       -0.0186
      6 C           4.6660   -1.9370    0.0000 C.3     1  UNL1       -0.0484
      7 C           2.9061    0.0976    0.0000 C.3     1  UNL1       -0.0436
      8 C           5.5321   -1.4370    0.0000 C.3     1  UNL1       -0.0462
      9 C           2.0000   -1.4578    0.0000 C.3     1  UNL1       -0.0476
     10 C           2.0000   -0.4162    0.0000 C.3     1  UNL1       -0.0518
     11 C           6.4421    0.0698    0.0000 C.3     1  UNL1       -0.0373
     12 C           3.8000    0.5630    0.0000 C.3     1  UNL1       -0.0556
     13 C           6.4501    1.1114    0.0000 C.3     1  UNL1       -0.0104
     14 C           4.6500    1.1045    0.0000 C.2     1  UNL1       -0.0832
     15 C           2.4161   -2.8434    0.0000 C.3     1  UNL1       -0.0595
     16 C           3.4160   -2.8319    0.0000 C.3     1  UNL1       -0.0595
     17 C           5.5480    1.6322    0.0000 C.3     1  UNL1       -0.0256
     18 C           7.4501    1.1076    0.0000 C.3     1  UNL1       -0.0558
     19 C           6.9534    1.9755    0.0000 C.2     1  UNL1       -0.0849
     20 C           6.4568    2.8434    0.0000 C.2     1  UNL1       -0.1021
     21 H           3.8048   -2.0570    0.0000 H       1  UNL1        0.0314
     22 H           6.0666   -0.7512    0.0000 H       1  UNL1        0.0346
     23 H           4.2675   -2.4120    0.0000 H       1  UNL1        0.0269
     24 H           5.0646   -2.4120    0.0000 H       1  UNL1        0.0269
     25 H           3.3107    0.5674    0.0000 H       1  UNL1        0.0274
     26 H           2.5124    0.5766    0.0000 H       1  UNL1        0.0274
     27 H           5.7441   -2.0196    0.0000 H       1  UNL1        0.0271
     28 H           6.1426   -1.3294    0.0000 H       1  UNL1        0.0271
     29 H           1.3891   -1.3518    0.0000 H       1  UNL1        0.0271
     30 H           1.7909   -2.0415    0.0000 H       1  UNL1        0.0271
     31 H           1.7909    0.1675    0.0000 H       1  UNL1        0.0266
     32 H           1.3891   -0.5223    0.0000 H       1  UNL1        0.0266
     33 H           6.6466   -0.5155    0.0000 H       1  UNL1        0.0279
     34 H           7.0537    0.1712    0.0000 H       1  UNL1        0.0279
     35 H           4.4200    0.5630    0.0000 H       1  UNL1        0.0238
     36 H           3.8000    1.1830    0.0000 H       1  UNL1        0.0238
     37 H           3.1800    0.5630    0.0000 H       1  UNL1        0.0238
     38 H           4.1095    1.4082    0.0000 H       1  UNL1        0.0572
     39 H           1.8756   -2.5397    0.0000 H       1  UNL1        0.0235
     40 H           2.1123   -3.3839    0.0000 H       1  UNL1        0.0235
     41 H           2.9566   -3.1472    0.0000 H       1  UNL1        0.0235
     42 H           2.8827   -3.1481    0.0000 H       1  UNL1        0.0235
     43 H           3.7322   -3.3652    0.0000 H       1  UNL1        0.0235
     44 H           3.9494   -2.5157    0.0000 H       1  UNL1        0.0235
     45 H           5.9453    2.1082    0.0000 H       1  UNL1        0.0316
     46 H           5.1470    2.1051    0.0000 H       1  UNL1        0.0316
     47 H           7.4477    0.4876    0.0000 H       1  UNL1        0.0238
     48 H           8.0701    1.1052    0.0000 H       1  UNL1        0.0238
     49 H           7.4525    1.7276    0.0000 H       1  UNL1        0.0238
     50 H           7.5734    1.9731    0.0000 H       1  UNL1        0.0572
     51 H           6.7688    3.3792    0.0000 H       1  UNL1        0.0532
     52 H           5.8368    2.8458    0.0000 H       1  UNL1        0.0532
@<TRIPOS>BOND
     1     1     2    1
     2     1     4    1
     3     1     7    1
     4     1    12    1
     5     2     3    1
     6     2     6    1
     7     2    21    1
     8     3     9    1
     9     3    15    1
    10     3    16    1
    11     4     5    1
    12     4    14    2
    13     5     8    1
    14     5    11    1
    15     5    22    1
    16     6     8    1
    17     6    23    1
    18     6    24    1
    19     7    10    1
    20     7    25    1
    21     7    26    1
    22     8    27    1
    23     8    28    1
    24     9    10    1
    25     9    29    1
    26     9    30    1
    27    10    31    1
    28    10    32    1
    29    11    13    1
    30    11    33    1
    31    11    34    1
    32    12    35    1
    33    12    36    1
    34    12    37    1
    35    13    17    1
    36    13    18    1
    37    13    19    1
    38    14    17    1
    39    14    38    1
    40    15    39    1
    41    15    40    1
    42    15    41    1
    43    16    42    1
    44    16    43    1
    45    16    44    1
    46    17    45    1
    47    17    46    1
    48    18    47    1
    49    18    48    1
    50    18    49    1
    51    19    20    2
    52    19    50    1
    53    20    51    1
    54    20    52    1
