@<TRIPOS>MOLECULE
IMPHY008260
 161 169 0 0 0
SMALL
GASTEIGER

@<TRIPOS>ATOM
      1 O           8.5618    3.1064    0.0000 O.3     1  UNL1       -0.3449
      2 O           6.7008   -6.1522    0.0000 O.3     1  UNL1       -0.4318
      3 O           5.8348   -4.6522    0.0000 O.2     1  UNL1       -0.2501
      4 O           6.8298    3.1264    0.0000 O.3     1  UNL1       -0.3461
      5 O           8.5849    5.1062    0.0000 O.3     1  UNL1       -0.3377
      6 O           4.9688   -6.1522    0.0000 O.3     1  UNL1       -0.3312
      7 O           6.8645    6.1262    0.0000 O.3     1  UNL1       -0.3401
      8 O           5.1210    5.1463    0.0000 O.3     1  UNL1       -0.3868
      9 O           6.7008   -8.1522    0.0000 O.3     1  UNL1       -0.3829
     10 O           4.9688   -9.1522    0.0000 O.3     1  UNL1       -0.3864
     11 O           9.4335    3.5963    0.0000 O.3     1  UNL1       -0.3405
     12 O           3.2367   -8.1522    0.0000 O.3     1  UNL1       -0.3865
     13 O           5.1326    6.1462    0.0000 O.3     1  UNL1       -0.3405
     14 O          10.3284    6.0861    0.0000 O.3     1  UNL1       -0.3841
     15 O           3.2367   -5.1522    0.0000 O.3     1  UNL1       -0.3924
     16 O          12.0488    5.0662    0.0000 O.3     1  UNL1       -0.3864
     17 O           6.8877    8.1260    0.0000 O.3     1  UNL1       -0.3841
     18 O          12.0257    3.0663    0.0000 O.3     1  UNL1       -0.3865
     19 O           5.1673    9.1460    0.0000 O.3     1  UNL1       -0.3864
     20 O           3.4238    8.1661    0.0000 O.3     1  UNL1       -0.3865
     21 O          11.1423    1.5764    0.0000 O.3     1  UNL1       -0.3924
     22 O           2.5405    6.6762    0.0000 O.3     1  UNL1       -0.3924
     23 C           7.6064   -1.5831    0.0000 C.3     1  UNL1       -0.0194
     24 C           8.4763   -1.0898    0.0000 C.3     1  UNL1       -0.0257
     25 C           8.5004   -0.0485    0.0000 C.3     1  UNL1       -0.0250
     26 C           7.5987   -2.5831    0.0000 C.3     1  UNL1       -0.0051
     27 C           7.6064    0.4862    0.0000 C.3     1  UNL1       -0.0278
     28 C           6.7004   -1.0693    0.0000 C.3     1  UNL1       -0.0463
     29 C           7.6064    1.5712    0.0000 C.3     1  UNL1       -0.0052
     30 C           6.7004   -0.0277    0.0000 C.3     1  UNL1       -0.0486
     31 C           8.4609   -3.0898    0.0000 C.2     1  UNL1       -0.0629
     32 C           8.4689   -4.1314    0.0000 C.3     1  UNL1       -0.0031
     33 C           9.3384   -1.5965    0.0000 C.3     1  UNL1       -0.0306
     34 C           9.4563    0.4648    0.0000 C.3     1  UNL1       -0.0447
     35 C           6.6848   -3.0829    0.0000 C.3     1  UNL1       -0.0424
     36 C           7.5668   -4.6522    0.0000 C.3     1  UNL1        0.0744
     37 C           6.6203   -1.7492    0.0000 C.3     1  UNL1       -0.0585
     38 C           8.5502    2.1064    0.0000 C.3     1  UNL1        0.0672
     39 C           6.6688   -4.1244    0.0000 C.3     1  UNL1       -0.0359
     40 C           9.3586   -0.5618    0.0000 C.3     1  UNL1       -0.0590
     41 C           9.3307   -2.5965    0.0000 C.2     1  UNL1       -0.0836
     42 C           9.4814    1.5495    0.0000 C.3     1  UNL1       -0.0255
     43 C           6.6153   -2.4019    0.0000 C.3     1  UNL1       -0.0553
     44 C           9.4168   -4.6593    0.0000 C.3     1  UNL1       -0.0403
     45 C           7.5501   -5.7370    0.0000 C.3     1  UNL1       -0.0362
     46 C           9.4252   -5.7443    0.0000 C.3     1  UNL1       -0.0343
     47 C           7.1098    2.4391    0.0000 C.3     1  UNL1       -0.0572
     48 C           6.6064    1.5750    0.0000 C.3     1  UNL1       -0.0572
     49 C           8.4855   -6.2868    0.0000 C.3     1  UNL1       -0.0468
     50 C           6.7008   -5.1522    0.0000 C.2     1  UNL1        0.3161
     51 C          10.4251   -5.7404    0.0000 C.3     1  UNL1       -0.0598
     52 C           9.9285   -6.6084    0.0000 C.3     1  UNL1       -0.0598
     53 C           7.7016    3.6163    0.0000 C.3     1  UNL1        0.1882
     54 C           7.7132    4.6163    0.0000 C.3     1  UNL1        0.1410
     55 C           5.8348   -6.6522    0.0000 C.3     1  UNL1        0.2337
     56 C           6.8530    5.1262    0.0000 C.3     1  UNL1        0.1206
     57 C           5.9697    3.6364    0.0000 C.3     1  UNL1        0.0792
     58 C           5.9812    4.6363    0.0000 C.3     1  UNL1        0.1073
     59 C           5.8348   -7.6522    0.0000 C.3     1  UNL1        0.1455
     60 C           4.9688   -8.1522    0.0000 C.3     1  UNL1        0.1152
     61 C           4.1027   -6.6522    0.0000 C.3     1  UNL1        0.1140
     62 C           4.1027   -7.6522    0.0000 C.3     1  UNL1        0.1120
     63 C           9.4451    4.5962    0.0000 C.3     1  UNL1        0.1885
     64 C           6.0043    6.6362    0.0000 C.3     1  UNL1        0.1884
     65 C          10.3168    5.0862    0.0000 C.3     1  UNL1        0.1341
     66 C           3.2367   -6.1522    0.0000 C.3     1  UNL1        0.0731
     67 C          11.1770    4.5762    0.0000 C.3     1  UNL1        0.1141
     68 C           6.0159    7.6361    0.0000 C.3     1  UNL1        0.1341
     69 C          10.2937    3.0863    0.0000 C.3     1  UNL1        0.1130
     70 C          11.1655    3.5763    0.0000 C.3     1  UNL1        0.1119
     71 C           5.1557    8.1461    0.0000 C.3     1  UNL1        0.1141
     72 C           4.2724    6.6562    0.0000 C.3     1  UNL1        0.1130
     73 C           4.2840    7.6561    0.0000 C.3     1  UNL1        0.1119
     74 C          10.2822    2.0864    0.0000 C.3     1  UNL1        0.0730
     75 C           3.4007    6.1662    0.0000 C.3     1  UNL1        0.0730
     76 H           9.2189   -0.6762    0.0000 H       1  UNL1        0.0315
     77 H           6.8720    0.9140    0.0000 H       1  UNL1        0.0312
     78 H           6.0895   -0.9632    0.0000 H       1  UNL1        0.0271
     79 H           6.4913   -1.6530    0.0000 H       1  UNL1        0.0271
     80 H           6.4913    0.5560    0.0000 H       1  UNL1        0.0268
     81 H           6.0895   -0.1338    0.0000 H       1  UNL1        0.0268
     82 H           9.2001   -3.6979    0.0000 H       1  UNL1        0.0357
     83 H           9.9482   -1.7089    0.0000 H       1  UNL1        0.0310
     84 H           9.5550   -1.0155    0.0000 H       1  UNL1        0.0310
     85 H           9.6518   -0.1236    0.0000 H       1  UNL1        0.0271
     86 H          10.0694    0.5567    0.0000 H       1  UNL1        0.0271
     87 H           6.4848   -2.4961    0.0000 H       1  UNL1        0.0274
     88 H           6.0724   -3.1796    0.0000 H       1  UNL1        0.0274
     89 H           6.5174   -1.1378    0.0000 H       1  UNL1        0.0235
     90 H           6.0089   -1.8521    0.0000 H       1  UNL1        0.0235
     91 H           6.7232   -2.3606    0.0000 H       1  UNL1        0.0235
     92 H           9.0913    2.4091    0.0000 H       1  UNL1        0.0602
     93 H           6.0596   -4.0089    0.0000 H       1  UNL1        0.0276
     94 H           6.4508   -4.7048    0.0000 H       1  UNL1        0.0276
     95 H           9.0404   -1.0939    0.0000 H       1  UNL1        0.0235
     96 H           9.8907   -0.8800    0.0000 H       1  UNL1        0.0235
     97 H           9.6768   -0.0297    0.0000 H       1  UNL1        0.0235
     98 H           9.8653   -2.9106    0.0000 H       1  UNL1        0.0572
     99 H          10.0896    1.4293    0.0000 H       1  UNL1        0.0290
    100 H           9.7039    2.1282    0.0000 H       1  UNL1        0.0290
    101 H           6.7276   -1.7921    0.0000 H       1  UNL1        0.0238
    102 H           6.0056   -2.2895    0.0000 H       1  UNL1        0.0238
    103 H           6.5029   -3.0116    0.0000 H       1  UNL1        0.0238
    104 H          10.0284   -4.7607    0.0000 H       1  UNL1        0.0276
    105 H           9.6213   -4.0740    0.0000 H       1  UNL1        0.0276
    106 H           6.9410   -5.6216    0.0000 H       1  UNL1        0.0276
    107 H           7.3321   -6.3174    0.0000 H       1  UNL1        0.0276
    108 H           6.6088    2.1950    0.0000 H       1  UNL1        0.0236
    109 H           5.9864    1.5774    0.0000 H       1  UNL1        0.0236
    110 H           6.6040    0.9550    0.0000 H       1  UNL1        0.0236
    111 H           7.6479    2.7471    0.0000 H       1  UNL1        0.0236
    112 H           6.8018    2.9772    0.0000 H       1  UNL1        0.0236
    113 H           6.5716    2.1312    0.0000 H       1  UNL1        0.0236
    114 H           8.0846   -6.7597    0.0000 H       1  UNL1        0.0271
    115 H           8.8828   -6.7628    0.0000 H       1  UNL1        0.0271
    116 H          10.4275   -6.3604    0.0000 H       1  UNL1        0.0235
    117 H           9.3928   -6.9204    0.0000 H       1  UNL1        0.0235
    118 H          10.2406   -7.1441    0.0000 H       1  UNL1        0.0235
    119 H          10.4642   -6.2963    0.0000 H       1  UNL1        0.0235
    120 H          11.0451   -5.7380    0.0000 H       1  UNL1        0.0235
    121 H          10.4228   -5.1204    0.0000 H       1  UNL1        0.0235
    122 H           7.6944    2.9964    0.0000 H       1  UNL1        0.0937
    123 H           8.2465    4.3001    0.0000 H       1  UNL1        0.0675
    124 H           5.8348   -6.0322    0.0000 H       1  UNL1        0.1085
    125 H           7.3935    5.4300    0.0000 H       1  UNL1        0.0651
    126 H           5.3604    3.7511    0.0000 H       1  UNL1        0.0587
    127 H           5.7509    3.0562    0.0000 H       1  UNL1        0.0587
    128 H           5.9884    5.2562    0.0000 H       1  UNL1        0.0643
    129 H           5.8348   -8.2722    0.0000 H       1  UNL1        0.0683
    130 H           4.4318   -8.4622    0.0000 H       1  UNL1        0.0648
    131 H           4.1027   -6.0322    0.0000 H       1  UNL1        0.0647
    132 H           3.5658   -7.3422    0.0000 H       1  UNL1        0.0647
    133 H           8.9046    4.2925    0.0000 H       1  UNL1        0.0938
    134 H           4.5806    4.8425    0.0000 H       1  UNL1        0.2100
    135 H           7.2377   -7.8422    0.0000 H       1  UNL1        0.2102
    136 H           5.9972    6.0162    0.0000 H       1  UNL1        0.0938
    137 H           9.7835    5.4024    0.0000 H       1  UNL1        0.0671
    138 H           2.6261   -6.0445    0.0000 H       1  UNL1        0.0584
    139 H           3.0246   -6.7348    0.0000 H       1  UNL1        0.0584
    140 H           4.4318   -9.4622    0.0000 H       1  UNL1        0.2100
    141 H          11.7103    4.2600    0.0000 H       1  UNL1        0.0648
    142 H           6.0231    8.2560    0.0000 H       1  UNL1        0.0671
    143 H           2.6998   -7.8422    0.0000 H       1  UNL1        0.2100
    144 H           9.7532    2.7826    0.0000 H       1  UNL1        0.0647
    145 H          11.1583    2.9563    0.0000 H       1  UNL1        0.0647
    146 H           4.6224    8.4623    0.0000 H       1  UNL1        0.0648
    147 H           4.2652    6.0362    0.0000 H       1  UNL1        0.0647
    148 H          10.8689    6.3899    0.0000 H       1  UNL1        0.2101
    149 H           3.7435    7.3523    0.0000 H       1  UNL1        0.0647
    150 H           2.6998   -4.8422    0.0000 H       1  UNL1        0.2095
    151 H           9.6729    2.2011    0.0000 H       1  UNL1        0.0584
    152 H          10.0634    1.5063    0.0000 H       1  UNL1        0.0584
    153 H          12.5821    4.7500    0.0000 H       1  UNL1        0.2100
    154 H           6.8948    8.7460    0.0000 H       1  UNL1        0.2101
    155 H          12.5661    3.3701    0.0000 H       1  UNL1        0.2100
    156 H           2.9967    5.6959    0.0000 H       1  UNL1        0.0584
    157 H           3.7937    5.6867    0.0000 H       1  UNL1        0.0584
    158 H           4.6340    9.4622    0.0000 H       1  UNL1        0.2100
    159 H           3.4310    8.7860    0.0000 H       1  UNL1        0.2100
    160 H          11.1352    0.9564    0.0000 H       1  UNL1        0.2095
    161 H           2.0000    6.3724    0.0000 H       1  UNL1        0.2095
@<TRIPOS>BOND
     1    38     1    1
     2    53     1    1
     3     2    50    1
     4    55     2    1
     5     3    50    2
     6     4    53    1
     7     4    57    1
     8    54     5    1
     9    63     5    1
    10     6    55    1
    11     6    61    1
    12    56     7    1
    13    64     7    1
    14    58     8    1
    15     8   134    1
    16    59     9    1
    17     9   135    1
    18    60    10    1
    19    10   140    1
    20    11    63    1
    21    11    69    1
    22    62    12    1
    23    12   143    1
    24    13    64    1
    25    13    72    1
    26    65    14    1
    27    14   148    1
    28    15    66    1
    29    15   150    1
    30    67    16    1
    31    16   153    1
    32    68    17    1
    33    17   154    1
    34    70    18    1
    35    18   155    1
    36    71    19    1
    37    19   158    1
    38    73    20    1
    39    20   159    1
    40    21    74    1
    41    21   160    1
    42    22    75    1
    43    22   161    1
    44    23    24    1
    45    23    26    1
    46    23    28    1
    47    23    37    1
    48    24    25    1
    49    24    33    1
    50    24    76    1
    51    25    27    1
    52    25    34    1
    53    25    40    1
    54    26    31    1
    55    26    35    1
    56    26    43    1
    57    27    29    1
    58    27    30    1
    59    27    77    1
    60    28    30    1
    61    28    78    1
    62    28    79    1
    63    29    38    1
    64    29    47    1
    65    29    48    1
    66    30    80    1
    67    30    81    1
    68    31    32    1
    69    31    41    2
    70    32    36    1
    71    32    44    1
    72    32    82    1
    73    33    41    1
    74    33    83    1
    75    33    84    1
    76    34    42    1
    77    34    85    1
    78    34    86    1
    79    35    39    1
    80    35    87    1
    81    35    88    1
    82    36    39    1
    83    36    45    1
    84    36    50    1
    85    37    89    1
    86    37    90    1
    87    37    91    1
    88    38    42    1
    89    38    92    1
    90    39    93    1
    91    39    94    1
    92    40    95    1
    93    40    96    1
    94    40    97    1
    95    41    98    1
    96    42    99    1
    97    42   100    1
    98    43   101    1
    99    43   102    1
   100    43   103    1
   101    44    46    1
   102    44   104    1
   103    44   105    1
   104    45    49    1
   105    45   106    1
   106    45   107    1
   107    46    49    1
   108    46    51    1
   109    46    52    1
   110    47   111    1
   111    47   112    1
   112    47   113    1
   113    48   108    1
   114    48   109    1
   115    48   110    1
   116    49   114    1
   117    49   115    1
   118    51   116    1
   119    51   120    1
   120    51   121    1
   121    52   117    1
   122    52   118    1
   123    52   119    1
   124    53    54    1
   125    53   122    1
   126    54    56    1
   127    54   123    1
   128    55    59    1
   129    55   124    1
   130    56    58    1
   131    56   125    1
   132    57    58    1
   133    57   126    1
   134    57   127    1
   135    58   128    1
   136    59    60    1
   137    59   129    1
   138    60    62    1
   139    60   130    1
   140    61    62    1
   141    61    66    1
   142    61   131    1
   143    62   132    1
   144    63    65    1
   145    63   133    1
   146    64    68    1
   147    64   136    1
   148    65    67    1
   149    65   137    1
   150    66   138    1
   151    66   139    1
   152    67    70    1
   153    67   141    1
   154    68    71    1
   155    68   142    1
   156    69    70    1
   157    69    74    1
   158    69   144    1
   159    70   145    1
   160    71    73    1
   161    71   146    1
   162    72    73    1
   163    72    75    1
   164    72   147    1
   165    73   149    1
   166    74   151    1
   167    74   152    1
   168    75   156    1
   169    75   157    1
