@<TRIPOS>MOLECULE
IMPHY000132
 57 61 0 0 0
SMALL
GASTEIGER

@<TRIPOS>ATOM
      1 O           7.2342    0.7743    0.0000 O.2     1  UNL1       -0.4532
      2 O           9.0876    3.8725    0.0000 O.3     1  UNL1       -0.4814
      3 O           4.5841   -0.7741    0.0000 O.3     1  UNL1       -0.4791
      4 O           4.6361    2.2743    0.0000 O.2     1  UNL1       -0.2865
      5 O           5.4803    3.8058    0.0000 O.3     1  UNL1       -0.5058
      6 O           6.4213   -3.9224    0.0000 O.3     1  UNL1       -0.4913
      7 O           8.2246   -2.8626    0.0000 O.3     1  UNL1       -0.5033
      8 C           5.5021    0.7743    0.0000 C.ar    1  UNL1        0.0869
      9 C          10.0273    3.3300    0.0000 C.3     1  UNL1        0.1235
     10 C           4.5921    0.2675    0.0000 C.3     1  UNL1        0.1507
     11 C           7.2342    1.7743    0.0000 C.ar    1  UNL1        0.1534
     12 C           6.3682    0.2743    0.0000 C.ar    1  UNL1        0.1499
     13 C           8.1442    2.2812    0.0000 C.ar    1  UNL1        0.0597
     14 C           6.3682    2.2743    0.0000 C.ar    1  UNL1        0.1065
     15 C           8.1522    3.3228    0.0000 C.ar    1  UNL1        0.1359
     16 C           5.5021    1.7743    0.0000 C.ar    1  UNL1        0.2036
     17 C           6.3842   -0.7672    0.0000 C.ar    1  UNL1        0.0631
     18 C          10.0189    2.2450    0.0000 C.2     1  UNL1       -0.0408
     19 C           5.4862   -1.2950    0.0000 C.ar    1  UNL1        0.1362
     20 C           9.0710    1.7171    0.0000 C.2     1  UNL1       -0.0478
     21 C           6.3521    3.3158    0.0000 C.ar    1  UNL1        0.1347
     22 C           7.2501    3.8436    0.0000 C.ar    1  UNL1        0.0231
     23 C          11.0273    3.3261    0.0000 C.3     1  UNL1       -0.0215
     24 C          10.5306    4.1941    0.0000 C.3     1  UNL1       -0.0215
     25 C           3.7319    0.7774    0.0000 C.2     1  UNL1       -0.0406
     26 C           7.3361   -1.2878    0.0000 C.ar    1  UNL1       -0.0023
     27 C           5.4778   -2.3799    0.0000 C.ar    1  UNL1        0.0262
     28 C           2.8602    0.2875    0.0000 C.2     1  UNL1       -0.0759
     29 C           7.3529   -2.3727    0.0000 C.ar    1  UNL1        0.1594
     30 C           6.4174   -2.9224    0.0000 C.ar    1  UNL1        0.1648
     31 C           2.0000    0.7975    0.0000 C.3     1  UNL1       -0.0439
     32 C           2.8486   -0.7124    0.0000 C.3     1  UNL1       -0.0439
     33 C           5.5572   -4.4257    0.0000 C.3     1  UNL1        0.0790
     34 H           4.0522   -0.0373    0.0000 H       1  UNL1        0.0833
     35 H          10.5522    1.9288    0.0000 H       1  UNL1        0.0611
     36 H           9.0591    1.0972    0.0000 H       1  UNL1        0.0624
     37 H           7.2477    4.4636    0.0000 H       1  UNL1        0.0691
     38 H          11.0249    2.7061    0.0000 H       1  UNL1        0.0271
     39 H          11.6472    3.3237    0.0000 H       1  UNL1        0.0271
     40 H          11.0296    3.9461    0.0000 H       1  UNL1        0.0271
     41 H          11.0663    3.8820    0.0000 H       1  UNL1        0.0271
     42 H          10.8427    4.7298    0.0000 H       1  UNL1        0.0271
     43 H           9.9949    4.5062    0.0000 H       1  UNL1        0.0271
     44 H           3.7391    1.3974    0.0000 H       1  UNL1        0.0611
     45 H           7.8670   -0.9675    0.0000 H       1  UNL1        0.0663
     46 H           4.9397   -2.6878    0.0000 H       1  UNL1        0.0692
     47 H           5.4732    4.4257    0.0000 H       1  UNL1        0.2922
     48 H           2.3162    1.3308    0.0000 H       1  UNL1        0.0274
     49 H           2.2287   -0.7053    0.0000 H       1  UNL1        0.0274
     50 H           2.8414   -1.3324    0.0000 H       1  UNL1        0.0274
     51 H           3.4686   -0.7196    0.0000 H       1  UNL1        0.0274
     52 H           1.4667    1.1137    0.0000 H       1  UNL1        0.0274
     53 H           1.6838    0.2642    0.0000 H       1  UNL1        0.0274
     54 H           8.2318   -3.4826    0.0000 H       1  UNL1        0.2923
     55 H           5.2451   -3.8900    0.0000 H       1  UNL1        0.0660
     56 H           5.0215   -4.7378    0.0000 H       1  UNL1        0.0660
     57 H           5.8693   -4.9615    0.0000 H       1  UNL1        0.0660
@<TRIPOS>BOND
     1     1    11   ar
     2     1    12   ar
     3     2     9    1
     4     2    15    1
     5     3    10    1
     6     3    19    1
     7     4    16    2
     8     5    21    1
     9     5    47    1
    10     6    30    1
    11     6    33    1
    12     7    29    1
    13     7    54    1
    14     8    10    1
    15     8    12   ar
    16     8    16   ar
    17     9    18    1
    18     9    23    1
    19     9    24    1
    20    10    25    1
    21    10    34    1
    22    11    13   ar
    23    11    14   ar
    24    12    17    1
    25    13    15   ar
    26    13    20    1
    27    14    16   ar
    28    14    21   ar
    29    15    22   ar
    30    17    19   ar
    31    17    26   ar
    32    18    20    2
    33    18    35    1
    34    19    27   ar
    35    20    36    1
    36    21    22   ar
    37    22    37    1
    38    23    38    1
    39    23    39    1
    40    23    40    1
    41    24    41    1
    42    24    42    1
    43    24    43    1
    44    25    28    2
    45    25    44    1
    46    26    29   ar
    47    26    45    1
    48    27    30   ar
    49    27    46    1
    50    28    31    1
    51    28    32    1
    52    29    30   ar
    53    31    48    1
    54    31    52    1
    55    31    53    1
    56    32    49    1
    57    32    50    1
    58    32    51    1
    59    33    55    1
    60    33    56    1
    61    33    57    1
