@<TRIPOS>MOLECULE
IMPHY002394
 32 35 0 0 0
SMALL
GASTEIGER

@<TRIPOS>ATOM
      1 C        2521.7200 2451.3900    0.0000 C.3     1  UNL1        0.0009
      2 C        2521.7200 2411.4200    0.0000 C.3     1  UNL1        0.0140
      3 C        2521.7200 2371.1400    0.0000 C.3     1  UNL1        0.0656
      4 C        2487.2000 2350.9100    0.0000 C.3     1  UNL1        0.0438
      5 C        2461.4100 2320.3600    0.0000 C.3     1  UNL1        0.0040
      6 C        2512.9000 2320.3600    0.0000 C.3     1  UNL1        0.0040
      7 C        2452.5800 2371.1400    0.0000 C.3     1  UNL1        0.1690
      8 C        2452.5800 2411.4200    0.0000 C.3     1  UNL1        0.0437
      9 C        2487.2000 2431.5500    0.0000 C.3     1  UNL1        0.0045
     10 O        2417.9700 2351.1100    0.0000 O.3     1  UNL1       -0.4523
     11 C        2383.3500 2371.1400    0.0000 C.2     1  UNL1        0.3174
     12 C        2348.7300 2351.1100    0.0000 C.3     1  UNL1        0.1212
     13 O        2383.3500 2411.1200    0.0000 O.2     1  UNL1       -0.2501
     14 C        2556.2400 2350.9100    0.0000 C.2     1  UNL1        0.1722
     15 O        2556.2400 2310.9300    0.0000 O.2     1  UNL1       -0.2914
     16 C        2590.7600 2371.1400    0.0000 C.2     1  UNL1        0.0291
     17 C        2590.7600 2411.4200    0.0000 C.2     1  UNL1       -0.0378
     18 C        2556.2400 2431.5500    0.0000 C.3     1  UNL1        0.0625
     19 C        2556.2400 2471.5300    0.0000 C.3     1  UNL1        0.2093
     20 O        2590.8600 2491.4700    0.0000 O.3     1  UNL1       -0.4750
     21 C        2590.8600 2531.4500    0.0000 C.ar    1  UNL1        0.1416
     22 C        2570.6300 2565.9700    0.0000 C.ar    1  UNL1        0.0745
     23 C        2590.8600 2600.4900    0.0000 C.ar    1  UNL1        0.1517
     24 C        2631.1400 2600.4900    0.0000 C.ar    1  UNL1        0.0351
     25 C        2651.2700 2565.9700    0.0000 C.ar    1  UNL1        0.0061
     26 C        2631.1400 2531.4500    0.0000 C.ar    1  UNL1        0.0371
     27 C        2651.2700 2635.0100    0.0000 C.ar    1  UNL1        0.0097
     28 C        2631.1400 2669.5300    0.0000 C.ar    1  UNL1        0.0824
     29 C        2590.8600 2669.6200    0.0000 C.ar    1  UNL1        0.3459
     30 O        2570.6300 2635.1000    0.0000 O.2     1  UNL1       -0.4209
     31 O        2570.8300 2704.1400    0.0000 O.2     1  UNL1       -0.2445
     32 C        2625.3800 2431.3600    0.0000 C.3     1  UNL1        0.0266
@<TRIPOS>BOND
     1     2     1    1
     2     2     3    1
     3     2     9    1
     4     2    18    1
     5     3     4    1
     6     3    14    1
     7     4     5    1
     8     4     6    1
     9     4     7    1
    10     7    10    1
    11     8     7    1
    12     9     8    1
    13    10    11    1
    14    11    12    1
    15    11    13    2
    16    14    15    2
    17    14    16    1
    18    17    16    2
    19    17    32    1
    20    18    17    1
    21    18    19    1
    22    19    20    1
    23    20    21    1
    24    21    22   ar
    25    21    26   ar
    26    22    23   ar
    27    23    24   ar
    28    23    30   ar
    29    24    27   ar
    30    25    24   ar
    31    26    25   ar
    32    27    28   ar
    33    29    28   ar
    34    29    31    2
    35    30    29   ar
