@<TRIPOS>MOLECULE
IMPHY009587
 63 63 0 0 0
SMALL
GASTEIGER

@<TRIPOS>ATOM
      1 O           2.3426    3.3100    0.0000 O.3     1  UNL1       -0.3312
      2 O           0.6106    1.3100    0.0000 O.3     1  UNL1       -0.3865
      3 O           2.3426    0.3100    0.0000 O.3     1  UNL1       -0.3864
      4 O           4.0747    1.3100    0.0000 O.3     1  UNL1       -0.3829
      5 O           4.0747    3.3100    0.0000 O.3     1  UNL1       -0.4287
      6 O           0.6106    4.3100    0.0000 O.3     1  UNL1       -0.3924
      7 O           3.2087    4.8100    0.0000 O.2     1  UNL1       -0.2449
      8 O           5.8067    7.3100    0.0000 O.3     1  UNL1       -0.4914
      9 O           7.5388    6.3100    0.0000 O.3     1  UNL1       -0.4190
     10 O           8.4048    4.8100    0.0000 O.2     1  UNL1       -0.2452
     11 O           6.6359   10.4300    0.0000 O.3     2  HOH2       -0.4105
     12 O           6.6359   12.9300    0.0000 O.3     3  HOH3       -0.4105
     13 C           1.4766    1.8100    0.0000 C.3     1  UNL1        0.1120
     14 C           2.3426    1.3100    0.0000 C.3     1  UNL1        0.1152
     15 C           1.4766    2.8100    0.0000 C.3     1  UNL1        0.1140
     16 C           3.2087    1.8100    0.0000 C.3     1  UNL1        0.1455
     17 C           3.2087    2.8100    0.0000 C.3     1  UNL1        0.2341
     18 C           0.6106    3.3100    0.0000 C.3     1  UNL1        0.0731
     19 C           4.0747    4.3100    0.0000 C.2     1  UNL1        0.3416
     20 C           4.9407    4.8100    0.0000 C.ar    1  UNL1        0.0628
     21 C           4.9407    5.8100    0.0000 C.ar    1  UNL1       -0.0023
     22 C           5.8067    4.3100    0.0000 C.ar    1  UNL1       -0.0441
     23 C           5.8067    6.3100    0.0000 C.ar    1  UNL1        0.1630
     24 C           6.6728    4.8100    0.0000 C.ar    1  UNL1       -0.0148
     25 C           6.6728    5.8100    0.0000 C.ar    1  UNL1        0.1734
     26 C           4.9407    7.8100    0.0000 C.3     1  UNL1        0.0790
     27 C           8.4048    5.8100    0.0000 C.2     1  UNL1        0.3373
     28 C           9.2708    6.3100    0.0000 C.2     1  UNL1        0.0235
     29 C          10.1369    5.8100    0.0000 C.2     1  UNL1       -0.0478
     30 C          11.0029    6.3100    0.0000 C.ar    1  UNL1       -0.0248
     31 C          11.0029    7.3100    0.0000 C.ar    1  UNL1       -0.0546
     32 C          11.8689    5.8100    0.0000 C.ar    1  UNL1       -0.0546
     33 C          11.8689    7.8100    0.0000 C.ar    1  UNL1       -0.0612
     34 C          12.7349    6.3100    0.0000 C.ar    1  UNL1       -0.0612
     35 C          12.7349    7.3100    0.0000 C.ar    1  UNL1       -0.0617
     36 H           1.4766    1.1900    0.0000 H       1  UNL1        0.0647
     37 H           1.8057    1.0000    0.0000 H       1  UNL1        0.0648
     38 H           1.4766    3.4300    0.0000 H       1  UNL1        0.0647
     39 H           3.2087    1.1900    0.0000 H       1  UNL1        0.0683
     40 H           3.2087    3.4300    0.0000 H       1  UNL1        0.1085
     41 H           0.0000    3.4177    0.0000 H       1  UNL1        0.0584
     42 H           0.3985    2.7274    0.0000 H       1  UNL1        0.0584
     43 H           0.0736    1.6200    0.0000 H       1  UNL1        0.2100
     44 H           1.8057    0.0000    0.0000 H       1  UNL1        0.2100
     45 H           4.6116    1.6200    0.0000 H       1  UNL1        0.2102
     46 H           0.0736    4.6200    0.0000 H       1  UNL1        0.2095
     47 H           4.4038    6.1200    0.0000 H       1  UNL1        0.0663
     48 H           5.8067    3.6900    0.0000 H       1  UNL1        0.0627
     49 H           7.2097    4.5000    0.0000 H       1  UNL1        0.0656
     50 H           5.2507    8.3469    0.0000 H       1  UNL1        0.0660
     51 H           4.4038    8.1200    0.0000 H       1  UNL1        0.0660
     52 H           4.6307    7.2731    0.0000 H       1  UNL1        0.0660
     53 H           9.2708    6.9300    0.0000 H       1  UNL1        0.0689
     54 H          10.1369    5.1900    0.0000 H       1  UNL1        0.0626
     55 H          10.4659    7.6200    0.0000 H       1  UNL1        0.0623
     56 H          11.8689    5.1900    0.0000 H       1  UNL1        0.0623
     57 H          11.8689    8.4300    0.0000 H       1  UNL1        0.0618
     58 H          13.2719    6.0000    0.0000 H       1  UNL1        0.0618
     59 H          13.2719    7.6200    0.0000 H       1  UNL1        0.0618
     60 H           7.1729   13.2400    0.0000 H       0  HOH0        0.2052
     61 H           7.1729   10.7400    0.0000 H       0  HOH0        0.2052
     62 H           6.0990   10.7400    0.0000 H       0  HOH0        0.2052
     63 H           6.0990   13.2400    0.0000 H       0  HOH0        0.2052
@<TRIPOS>BOND
     1     1    15    1
     2     1    17    1
     3    13     2    1
     4     2    43    1
     5    14     3    1
     6     3    44    1
     7    16     4    1
     8     4    45    1
     9    17     5    1
    10     5    19    1
    11     6    18    1
    12     6    46    1
    13     7    19    2
    14     8    23    1
    15     8    26    1
    16     9    25    1
    17     9    27    1
    18    10    27    2
    19    11    61    1
    20    11    62    1
    21    12    60    1
    22    12    63    1
    23    13    14    1
    24    13    15    1
    25    13    36    1
    26    14    16    1
    27    14    37    1
    28    15    18    1
    29    15    38    1
    30    16    17    1
    31    16    39    1
    32    17    40    1
    33    18    41    1
    34    18    42    1
    35    19    20    1
    36    20    21   ar
    37    20    22   ar
    38    21    23   ar
    39    21    47    1
    40    22    24   ar
    41    22    48    1
    42    23    25   ar
    43    24    25   ar
    44    24    49    1
    45    26    50    1
    46    26    51    1
    47    26    52    1
    48    27    28    1
    49    28    29    2
    50    28    53    1
    51    29    30    1
    52    29    54    1
    53    30    31   ar
    54    30    32   ar
    55    31    33   ar
    56    31    55    1
    57    32    34   ar
    58    32    56    1
    59    33    35   ar
    60    33    57    1
    61    34    35   ar
    62    34    58    1
    63    35    59    1
