@<TRIPOS>MOLECULE
IMPHY015410
 22 21 0 0 0
SMALL
GASTEIGER

@<TRIPOS>ATOM
      1 O           5.4641    1.2500    0.0000 O.2     1  UNL1       -0.2977
      2 C           2.8660   -0.2500    0.0000 C.3     1  UNL1       -0.0463
      3 C           3.7320    0.2500    0.0000 C.3     1  UNL1       -0.0440
      4 C           4.5981   -0.2500    0.0000 C.3     1  UNL1        0.0058
      5 C           2.0000    0.2500    0.0000 C.3     1  UNL1       -0.0627
      6 C           2.8660   -1.2500    0.0000 C.3     1  UNL1       -0.0627
      7 C           5.4641    0.2500    0.0000 C.2     1  UNL1        0.1303
      8 C           6.3301   -0.2500    0.0000 C.3     1  UNL1       -0.0061
      9 H           2.8660    0.3700    0.0000 H       1  UNL1        0.0296
     10 H           4.1306    0.7249    0.0000 H       1  UNL1        0.0272
     11 H           3.3335    0.7249    0.0000 H       1  UNL1        0.0272
     12 H           4.1996   -0.7249    0.0000 H       1  UNL1        0.0342
     13 H           4.9966   -0.7249    0.0000 H       1  UNL1        0.0342
     14 H           2.3100    0.7869    0.0000 H       1  UNL1        0.0232
     15 H           1.4631    0.5600    0.0000 H       1  UNL1        0.0232
     16 H           1.6900   -0.2869    0.0000 H       1  UNL1        0.0232
     17 H           2.2460   -1.2500    0.0000 H       1  UNL1        0.0232
     18 H           2.8660   -1.8700    0.0000 H       1  UNL1        0.0232
     19 H           3.4860   -1.2500    0.0000 H       1  UNL1        0.0232
     20 H           6.0201   -0.7869    0.0000 H       1  UNL1        0.0306
     21 H           6.8671   -0.5600    0.0000 H       1  UNL1        0.0306
     22 H           6.6401    0.2869    0.0000 H       1  UNL1        0.0306
@<TRIPOS>BOND
     1     1     7    2
     2     2     3    1
     3     2     5    1
     4     2     6    1
     5     2     9    1
     6     3     4    1
     7     3    10    1
     8     3    11    1
     9     4     7    1
    10     4    12    1
    11     4    13    1
    12     5    14    1
    13     5    15    1
    14     5    16    1
    15     6    17    1
    16     6    18    1
    17     6    19    1
    18     7     8    1
    19     8    20    1
    20     8    21    1
    21     8    22    1
