@<TRIPOS>MOLECULE
IMPHY005655
 33 35 0 0 0
SMALL
GASTEIGER

@<TRIPOS>ATOM
      1 O           5.5321   -0.7500    0.0000 O.2     1  UNL1       -0.4264
      2 O           4.6660   -2.2500    0.0000 O.2     1  UNL1       -0.2445
      3 O           8.9962    2.2500    0.0000 O.3     1  UNL1       -0.4771
      4 O           7.2641    2.2500    0.0000 O.2     1  UNL1       -0.2451
      5 C           6.3981    0.7500    0.0000 C.3     1  UNL1        0.0316
      6 C           5.5321    0.2500    0.0000 C.ar    1  UNL1        0.1140
      7 C           7.2641    0.2500    0.0000 C.ar    1  UNL1       -0.0261
      8 C           3.8000    0.2500    0.0000 C.ar    1  UNL1       -0.0079
      9 C           4.6660    0.7500    0.0000 C.ar    1  UNL1       -0.0152
     10 C           3.8000   -0.7500    0.0000 C.ar    1  UNL1        0.0666
     11 C           8.1301    0.7500    0.0000 C.ar    1  UNL1        0.0624
     12 C           7.2641   -0.7500    0.0000 C.ar    1  UNL1       -0.0574
     13 C           4.6660   -1.2500    0.0000 C.ar    1  UNL1        0.3447
     14 C           2.9061    0.7847    0.0000 C.ar    1  UNL1       -0.0537
     15 C           2.9061   -1.2847    0.0000 C.ar    1  UNL1       -0.0472
     16 C           8.9962    0.2500    0.0000 C.ar    1  UNL1       -0.0475
     17 C           8.1301   -1.2500    0.0000 C.ar    1  UNL1       -0.0614
     18 C           2.0000    0.2708    0.0000 C.ar    1  UNL1       -0.0612
     19 C           2.0000   -0.7708    0.0000 C.ar    1  UNL1       -0.0609
     20 C           8.9962   -0.7500    0.0000 C.ar    1  UNL1       -0.0610
     21 C           8.1301    1.7500    0.0000 C.2     1  UNL1        0.3371
     22 H           6.7966    1.2250    0.0000 H       1  UNL1        0.0392
     23 H           5.9996    1.2250    0.0000 H       1  UNL1        0.0392
     24 H           4.6660    1.3700    0.0000 H       1  UNL1        0.0657
     25 H           6.7272   -1.0600    0.0000 H       1  UNL1        0.0621
     26 H           2.9132    1.4046    0.0000 H       1  UNL1        0.0624
     27 H           2.9132   -1.9046    0.0000 H       1  UNL1        0.0626
     28 H           9.5331    0.5600    0.0000 H       1  UNL1        0.0626
     29 H           8.1301   -1.8700    0.0000 H       1  UNL1        0.0618
     30 H           1.4643    0.5829    0.0000 H       1  UNL1        0.0618
     31 H           1.4643   -1.0829    0.0000 H       1  UNL1        0.0618
     32 H           9.5331   -1.0600    0.0000 H       1  UNL1        0.0618
     33 H           9.5331    1.9400    0.0000 H       1  UNL1        0.2954
@<TRIPOS>BOND
     1     1     6   ar
     2     1    13   ar
     3     2    13    2
     4     3    21    1
     5     3    33    1
     6     4    21    2
     7     5     6    1
     8     5     7    1
     9     5    22    1
    10     5    23    1
    11     6     9   ar
    12     7    11   ar
    13     7    12   ar
    14     8     9   ar
    15     8    10   ar
    16     8    14   ar
    17     9    24    1
    18    10    13   ar
    19    10    15   ar
    20    11    16   ar
    21    11    21    1
    22    12    17   ar
    23    12    25    1
    24    14    18   ar
    25    14    26    1
    26    15    19   ar
    27    15    27    1
    28    16    20   ar
    29    16    28    1
    30    17    20   ar
    31    17    29    1
    32    18    19   ar
    33    18    30    1
    34    19    31    1
    35    20    32    1
