@<TRIPOS>MOLECULE
IMPHY007383
 39 39 0 0 0
SMALL
GASTEIGER

@<TRIPOS>ATOM
      1 O           3.3660    0.2010    0.0000 O.3     1  UNL1       -0.3796
      2 O           3.8660   -3.6651    0.0000 O.2     1  UNL1       -0.2927
      3 O           6.4641   -1.1651    0.0000 O.3     1  UNL1       -0.3906
      4 O           2.3660    3.6651    0.0000 O.co2   1  UNL1       -0.5452
      5 O           2.3660    1.9330    0.0000 O.co2   1  UNL1       -0.5452
      6 C           3.0000   -1.1651    0.0000 C.3     1  UNL1        0.0084
      7 C           3.8660   -0.6651    0.0000 C.3     1  UNL1        0.1134
      8 C           3.0000   -2.1651    0.0000 C.3     1  UNL1        0.0182
      9 C           4.7320   -1.1651    0.0000 C.2     1  UNL1       -0.0057
     10 C           2.0000   -1.1651    0.0000 C.3     1  UNL1       -0.0562
     11 C           2.2340   -0.5223    0.0000 C.3     1  UNL1       -0.0562
     12 C           3.8660   -2.6651    0.0000 C.2     1  UNL1        0.1568
     13 C           4.3660    0.2010    0.0000 C.2     1  UNL1       -0.0479
     14 C           4.7320   -2.1651    0.0000 C.2     1  UNL1       -0.0148
     15 C           5.5981   -0.6651    0.0000 C.3     1  UNL1        0.0686
     16 C           3.8660    1.0670    0.0000 C.2     1  UNL1       -0.0597
     17 C           4.3660    1.9330    0.0000 C.2     1  UNL1       -0.0490
     18 C           5.3660    1.9330    0.0000 C.3     1  UNL1       -0.0397
     19 C           3.8660    2.7990    0.0000 C.2     1  UNL1       -0.0364
     20 C           2.8660    2.7990    0.0000 C.2     1  UNL1        0.0648
     21 H           2.3894   -2.0574    0.0000 H       1  UNL1        0.0351
     22 H           2.7880   -2.7477    0.0000 H       1  UNL1        0.0351
     23 H           2.0000   -0.5451    0.0000 H       1  UNL1        0.0236
     24 H           1.3800   -1.1651    0.0000 H       1  UNL1        0.0236
     25 H           2.0000   -1.7851    0.0000 H       1  UNL1        0.0236
     26 H           2.6325   -0.0473    0.0000 H       1  UNL1        0.0236
     27 H           1.7590   -0.1237    0.0000 H       1  UNL1        0.0236
     28 H           1.8354   -0.9972    0.0000 H       1  UNL1        0.0236
     29 H           4.9860    0.2010    0.0000 H       1  UNL1        0.0604
     30 H           5.2690   -2.4751    0.0000 H       1  UNL1        0.0654
     31 H           5.9966   -0.1901    0.0000 H       1  UNL1        0.0605
     32 H           5.1996   -0.1901    0.0000 H       1  UNL1        0.0605
     33 H           2.7460    0.2010    0.0000 H       1  UNL1        0.2111
     34 H           3.2460    1.0670    0.0000 H       1  UNL1        0.0618
     35 H           7.0010   -0.8551    0.0000 H       1  UNL1        0.2098
     36 H           5.3660    1.3130    0.0000 H       1  UNL1        0.0278
     37 H           5.9860    1.9330    0.0000 H       1  UNL1        0.0278
     38 H           5.3660    2.5530    0.0000 H       1  UNL1        0.0278
     39 H           4.1760    3.3360    0.0000 H       1  UNL1        0.0638
@<TRIPOS>UNITY_ATOM_ATTR
4 1
charge -1
@<TRIPOS>BOND
     1     1     7    1
     2     1    33    1
     3     2    12    2
     4     3    15    1
     5     3    35    1
     6     4    20   ar
     7     5    20   ar
     8     6     7    1
     9     6     8    1
    10     6    10    1
    11     6    11    1
    12     7     9    1
    13     7    13    1
    14     8    12    1
    15     8    21    1
    16     8    22    1
    17     9    14    2
    18     9    15    1
    19    10    23    1
    20    10    24    1
    21    10    25    1
    22    11    26    1
    23    11    27    1
    24    11    28    1
    25    12    14    1
    26    13    16    2
    27    13    29    1
    28    14    30    1
    29    15    31    1
    30    15    32    1
    31    16    17    1
    32    16    34    1
    33    17    18    1
    34    17    19    2
    35    18    36    1
    36    18    37    1
    37    18    38    1
    38    19    20    1
    39    19    39    1
