@<TRIPOS>MOLECULE
IMPHY002425
 55 57 0 0 0
SMALL
GASTEIGER

@<TRIPOS>ATOM
      1 O           2.0000   -0.3454    0.0000 O.3     1  UNL1       -0.3648
      2 O           6.4106    1.9597    0.0000 O.3     1  UNL1       -0.4573
      3 O           4.5983   -0.8450    0.0000 O.3     1  UNL1       -0.4573
      4 O           2.8663    3.1550    0.0000 O.3     1  UNL1       -0.3889
      5 O           4.3480    0.8670    0.0000 O.3     1  UNL1       -0.3862
      6 O           7.9942    1.1550    0.0000 O.2     1  UNL1       -0.2453
      7 O           2.8663   -0.8450    0.0000 O.2     1  UNL1       -0.2453
      8 C           2.8663    0.1550    0.0000 C.3     1  UNL1        0.0967
      9 C           2.0003    0.6550    0.0000 C.3     1  UNL1        0.0907
     10 C           3.7323    0.6550    0.0000 C.3     1  UNL1        0.0164
     11 C           2.0003    1.6550    0.0000 C.3     1  UNL1        0.0049
     12 C           4.5983    0.1550    0.0000 C.3     1  UNL1        0.1164
     13 C           5.4644    0.6550    0.0000 C.3     1  UNL1        0.0646
     14 C           2.8663    2.1550    0.0000 C.3     1  UNL1        0.0862
     15 C           3.7323    1.6550    0.0000 C.3     1  UNL1        0.0925
     16 C           5.4644    1.6550    0.0000 C.3     1  UNL1        0.1164
     17 C           3.7323   -0.3450    0.0000 C.3     1  UNL1       -0.0332
     18 C           4.5983    2.1550    0.0000 C.3     1  UNL1        0.0161
     19 C           6.4106    0.3503    0.0000 C.2     1  UNL1        0.0396
     20 C           2.8843    1.1250    0.0000 C.3     1  UNL1       -0.0335
     21 C           6.9942    1.1550    0.0000 C.2     1  UNL1        0.3354
     22 C           6.7212   -0.6003    0.0000 C.2     1  UNL1       -0.0882
     23 C           3.7323   -1.3450    0.0000 C.2     1  UNL1        0.3348
     24 C           3.7323   -2.3450    0.0000 C.2     1  UNL1        0.0293
     25 C           4.5983   -2.8450    0.0000 C.3     1  UNL1       -0.0333
     26 C           2.8663   -2.8450    0.0000 C.2     1  UNL1       -0.0774
     27 C           2.0003   -2.3450    0.0000 C.3     1  UNL1       -0.0461
     28 H           1.1503    0.6551    0.0000 H       1  UNL1        0.0626
     29 H           4.1308    1.1300    0.0000 H       1  UNL1        0.0330
     30 H           3.3338    1.1300    0.0000 H       1  UNL1        0.0330
     31 H           1.7882    2.2376    0.0000 H       1  UNL1        0.0317
     32 H           1.3897    1.5473    0.0000 H       1  UNL1        0.0317
     33 H           4.0614   -0.1550    0.0000 H       1  UNL1        0.0742
     34 H           5.5543   -0.1902    0.0000 H       1  UNL1        0.0423
     35 H           3.4032    2.4650    0.0000 H       1  UNL1        0.0623
     36 H           5.5543    2.5002    0.0000 H       1  UNL1        0.0742
     37 H           3.4223   -0.8819    0.0000 H       1  UNL1        0.0258
     38 H           4.2692   -0.6550    0.0000 H       1  UNL1        0.0258
     39 H           4.0423    0.1919    0.0000 H       1  UNL1        0.0258
     40 H           4.9969    2.6300    0.0000 H       1  UNL1        0.0330
     41 H           4.1998    2.6300    0.0000 H       1  UNL1        0.0330
     42 H           2.5557    1.6508    0.0000 H       1  UNL1        0.0258
     43 H           2.3585    0.7964    0.0000 H       1  UNL1        0.0258
     44 H           3.2129    0.5993    0.0000 H       1  UNL1        0.0258
     45 H           2.3293    3.4650    0.0000 H       1  UNL1        0.2099
     46 H           4.8365    1.2487    0.0000 H       1  UNL1        0.2103
     47 H           6.3072   -1.0617    0.0000 H       1  UNL1        0.0540
     48 H           7.3279   -0.7281    0.0000 H       1  UNL1        0.0540
     49 H           4.2883   -3.3819    0.0000 H       1  UNL1        0.0280
     50 H           5.1353   -3.1550    0.0000 H       1  UNL1        0.0280
     51 H           4.9083   -2.3081    0.0000 H       1  UNL1        0.0280
     52 H           2.8663   -3.4650    0.0000 H       1  UNL1        0.0574
     53 H           2.3103   -1.8081    0.0000 H       1  UNL1        0.0272
     54 H           1.4633   -2.0350    0.0000 H       1  UNL1        0.0272
     55 H           1.6903   -2.8819    0.0000 H       1  UNL1        0.0272
@<TRIPOS>BOND
     1     1     8    1
     2     1     9    1
     3     2    16    1
     4     2    21    1
     5    12     3    1
     6     3    23    1
     7    14     4    1
     8     4    45    1
     9    15     5    1
    10     5    46    1
    11     6    21    2
    12     7    23    2
    13     8     9    1
    14     8    10    1
    15     8    17    1
    16     9    11    1
    17     9    28    1
    18    10    12    1
    19    10    29    1
    20    10    30    1
    21    11    14    1
    22    11    31    1
    23    11    32    1
    24    12    13    1
    25    12    33    1
    26    13    16    1
    27    13    19    1
    28    13    34    1
    29    14    15    1
    30    14    35    1
    31    15    18    1
    32    15    20    1
    33    16    18    1
    34    16    36    1
    35    17    37    1
    36    17    38    1
    37    17    39    1
    38    18    40    1
    39    18    41    1
    40    19    21    1
    41    19    22    2
    42    20    42    1
    43    20    43    1
    44    20    44    1
    45    22    47    1
    46    22    48    1
    47    23    24    1
    48    24    25    1
    49    24    26    2
    50    25    49    1
    51    25    50    1
    52    25    51    1
    53    26    27    1
    54    26    52    1
    55    27    53    1
    56    27    54    1
    57    27    55    1
