@<TRIPOS>MOLECULE
IMPHY004163
 39 40 0 0 0
SMALL
GASTEIGER

@<TRIPOS>ATOM
      1 O           6.1464    2.2074    0.0000 O.3     1  UNL1       -0.3650
      2 O           3.7320   -2.2074    0.0000 O.2     1  UNL1       -0.2876
      3 C           5.4392    1.4998    0.0000 C.3     1  UNL1        0.0935
      4 C           6.4051    1.2409    0.0000 C.3     1  UNL1        0.0889
      5 C           6.6639    0.2750    0.0000 C.3     1  UNL1       -0.0153
      6 C           4.7320    0.7926    0.0000 C.3     1  UNL1       -0.0181
      7 C           6.3301   -0.7074    0.0000 C.3     1  UNL1       -0.0140
      8 C           4.4732    1.7586    0.0000 C.3     1  UNL1       -0.0333
      9 C           3.7320    0.7926    0.0000 C.3     1  UNL1       -0.0314
     10 C           7.3275   -0.6345    0.0000 C.3     1  UNL1       -0.0563
     11 C           6.8519   -1.5604    0.0000 C.3     1  UNL1       -0.0563
     12 C           5.4641   -1.2074    0.0000 C.2     1  UNL1       -0.0746
     13 C           2.8660    0.2926    0.0000 C.2     1  UNL1       -0.0774
     14 C           4.5981   -0.7074    0.0000 C.2     1  UNL1       -0.0181
     15 C           2.8660   -0.7074    0.0000 C.2     1  UNL1       -0.0077
     16 C           3.7320   -1.2074    0.0000 C.2     1  UNL1        0.1813
     17 C           2.0000   -1.2074    0.0000 C.3     1  UNL1       -0.0364
     18 H           7.0040    1.4013    0.0000 H       1  UNL1        0.0625
     19 H           7.1557   -0.1025    0.0000 H       1  UNL1        0.0299
     20 H           6.0442    0.2954    0.0000 H       1  UNL1        0.0299
     21 H           4.5716    0.1938    0.0000 H       1  UNL1        0.0297
     22 H           5.2690    0.4826    0.0000 H       1  UNL1        0.0297
     23 H           4.6337    2.3574    0.0000 H       1  UNL1        0.0258
     24 H           3.8744    1.9190    0.0000 H       1  UNL1        0.0258
     25 H           4.3128    1.1597    0.0000 H       1  UNL1        0.0258
     26 H           3.9441    1.3753    0.0000 H       1  UNL1        0.0308
     27 H           3.8925    0.1938    0.0000 H       1  UNL1        0.0308
     28 H           6.3230   -1.8839    0.0000 H       1  UNL1        0.0238
     29 H           7.1754   -2.0894    0.0000 H       1  UNL1        0.0238
     30 H           7.3808   -1.2369    0.0000 H       1  UNL1        0.0238
     31 H           7.3726   -1.2528    0.0000 H       1  UNL1        0.0238
     32 H           7.9458   -0.5893    0.0000 H       1  UNL1        0.0238
     33 H           7.2823   -0.0161    0.0000 H       1  UNL1        0.0238
     34 H           5.4641   -1.8274    0.0000 H       1  UNL1        0.0579
     35 H           2.3291    0.6026    0.0000 H       1  UNL1        0.0576
     36 H           4.5981   -0.0874    0.0000 H       1  UNL1        0.0653
     37 H           1.6900   -0.6704    0.0000 H       1  UNL1        0.0279
     38 H           1.4631   -1.5174    0.0000 H       1  UNL1        0.0279
     39 H           2.3100   -1.7443    0.0000 H       1  UNL1        0.0279
@<TRIPOS>BOND
     1     1     3    1
     2     1     4    1
     3     2    16    2
     4     3     4    1
     5     3     6    1
     6     3     8    1
     7     4     5    1
     8     4    18    1
     9     5     7    1
    10     5    19    1
    11     5    20    1
    12     6     9    1
    13     6    21    1
    14     6    22    1
    15     7    10    1
    16     7    11    1
    17     7    12    1
    18     8    23    1
    19     8    24    1
    20     8    25    1
    21     9    13    1
    22     9    26    1
    23     9    27    1
    24    10    31    1
    25    10    32    1
    26    10    33    1
    27    11    28    1
    28    11    29    1
    29    11    30    1
    30    12    14    2
    31    12    34    1
    32    13    15    2
    33    13    35    1
    34    14    16    1
    35    14    36    1
    36    15    16    1
    37    15    17    1
    38    17    37    1
    39    17    38    1
    40    17    39    1
