@<TRIPOS>MOLECULE
IMPHY010567
 29 31 0 0 0
SMALL
GASTEIGER

@<TRIPOS>ATOM
      1 O           6.0682   -1.6581    0.0000 O.2     1  UNL1       -0.4543
      2 O           9.5984   -1.6822    0.0000 O.3     1  UNL1       -0.4949
      3 O           7.8167    1.3765    0.0000 O.3     1  UNL1       -0.5058
      4 O           6.0682    1.3419    0.0000 O.2     1  UNL1       -0.2863
      5 O           2.5381    0.3661    0.0000 O.3     1  UNL1       -0.5067
      6 C           6.9343   -0.1581    0.0000 C.ar    1  UNL1        0.1061
      7 C           5.2022   -0.1581    0.0000 C.ar    1  UNL1        0.0681
      8 C           6.9343   -1.1581    0.0000 C.ar    1  UNL1        0.1463
      9 C           5.2022   -1.1581    0.0000 C.ar    1  UNL1        0.1395
     10 C           6.0682    0.3419    0.0000 C.ar    1  UNL1        0.2038
     11 C           7.8282    0.3766    0.0000 C.ar    1  UNL1        0.1347
     12 C           7.8282   -1.6927    0.0000 C.ar    1  UNL1        0.0233
     13 C           4.3083    0.3766    0.0000 C.ar    1  UNL1       -0.0058
     14 C           8.7343   -1.1789    0.0000 C.ar    1  UNL1        0.1271
     15 C           8.7343   -0.1372    0.0000 C.ar    1  UNL1        0.0225
     16 C           4.3083   -1.6927    0.0000 C.ar    1  UNL1       -0.0152
     17 C           3.4022   -0.1372    0.0000 C.ar    1  UNL1        0.1178
     18 C           3.4022   -1.1789    0.0000 C.ar    1  UNL1       -0.0167
     19 C          10.4663   -1.1856    0.0000 C.3     1  UNL1        0.0788
     20 H           7.8210   -2.3127    0.0000 H       1  UNL1        0.0691
     21 H           4.3154    0.9966    0.0000 H       1  UNL1        0.0662
     22 H           9.2700    0.1748    0.0000 H       1  UNL1        0.0691
     23 H           4.3154   -2.3127    0.0000 H       1  UNL1        0.0656
     24 H           2.8665   -1.4909    0.0000 H       1  UNL1        0.0655
     25 H           8.3500    1.6927    0.0000 H       1  UNL1        0.2922
     26 H           2.0000    0.0582    0.0000 H       1  UNL1        0.2921
     27 H          10.7743   -1.7237    0.0000 H       1  UNL1        0.0660
     28 H          11.0045   -0.8776    0.0000 H       1  UNL1        0.0660
     29 H          10.1584   -0.6474    0.0000 H       1  UNL1        0.0660
@<TRIPOS>BOND
     1     1     8   ar
     2     1     9   ar
     3     2    14    1
     4     2    19    1
     5     3    11    1
     6     3    25    1
     7     4    10    2
     8     5    17    1
     9     5    26    1
    10     6     8   ar
    11     6    10   ar
    12     6    11   ar
    13     7     9   ar
    14     7    10   ar
    15     7    13   ar
    16     8    12   ar
    17     9    16   ar
    18    11    15   ar
    19    12    14   ar
    20    12    20    1
    21    13    17   ar
    22    13    21    1
    23    14    15   ar
    24    15    22    1
    25    16    18   ar
    26    16    23    1
    27    17    18   ar
    28    18    24    1
    29    19    27    1
    30    19    28    1
    31    19    29    1
