@<TRIPOS>MOLECULE
IMPHY012432
 38 40 0 0 0
SMALL
GASTEIGER

@<TRIPOS>ATOM
      1 O           7.2809    3.1280    0.0000 O.3     1  UNL1       -0.3615
      2 O           6.8671    0.1820    0.0000 O.3     1  UNL1       -0.3249
      3 O           4.6070    2.4421    0.0000 O.3     1  UNL1       -0.3890
      4 O           5.1350    0.1820    0.0000 O.3     1  UNL1       -0.3405
      5 O           6.8671   -1.8180    0.0000 O.3     1  UNL1       -0.3841
      6 O           5.1350   -2.8180    0.0000 O.3     1  UNL1       -0.3864
      7 O           3.4030   -1.8180    0.0000 O.3     1  UNL1       -0.3865
      8 O           2.5369   -0.3180    0.0000 O.3     1  UNL1       -0.3924
      9 N           8.7692    0.5640    0.0000 N.1     1  UNL1       -0.1934
     10 C           7.1761    2.1331    0.0000 C.3     1  UNL1        0.1298
     11 C           6.3671    2.7208    0.0000 C.3     1  UNL1        0.1150
     12 C           6.8671    1.1820    0.0000 C.3     1  UNL1        0.1882
     13 C           5.5580    2.1331    0.0000 C.3     1  UNL1        0.0876
     14 C           5.8671    1.1820    0.0000 C.3     1  UNL1        0.0209
     15 C           6.0010   -0.3180    0.0000 C.3     1  UNL1        0.1899
     16 C           6.0010   -1.3180    0.0000 C.3     1  UNL1        0.1342
     17 C           7.8181    0.8730    0.0000 C.1     1  UNL1        0.1005
     18 C           5.1350   -1.8180    0.0000 C.3     1  UNL1        0.1141
     19 C           4.2690   -1.3180    0.0000 C.3     1  UNL1        0.1119
     20 C           4.2690   -0.3180    0.0000 C.3     1  UNL1        0.1130
     21 C           3.4030    0.1820    0.0000 C.3     1  UNL1        0.0730
     22 H           7.7825    2.0041    0.0000 H       1  UNL1        0.0663
     23 H           6.0570    3.2577    0.0000 H       1  UNL1        0.0649
     24 H           5.1196    1.6946    0.0000 H       1  UNL1        0.0621
     25 H           5.2606    1.0531    0.0000 H       1  UNL1        0.0330
     26 H           5.9319    0.5654    0.0000 H       1  UNL1        0.0330
     27 H           6.0010    0.3020    0.0000 H       1  UNL1        0.0938
     28 H           6.0010   -1.9380    0.0000 H       1  UNL1        0.0671
     29 H           4.5981   -2.1280    0.0000 H       1  UNL1        0.0648
     30 H           4.4781    3.0485    0.0000 H       1  UNL1        0.2099
     31 H           4.2690   -1.9380    0.0000 H       1  UNL1        0.0647
     32 H           4.2690    0.3020    0.0000 H       1  UNL1        0.0647
     33 H           3.8015    0.6570    0.0000 H       1  UNL1        0.0584
     34 H           3.0044    0.6570    0.0000 H       1  UNL1        0.0584
     35 H           6.8671   -2.4380    0.0000 H       1  UNL1        0.2101
     36 H           4.5981   -3.1280    0.0000 H       1  UNL1        0.2100
     37 H           3.4030   -2.4380    0.0000 H       1  UNL1        0.2100
     38 H           2.0000   -0.0080    0.0000 H       1  UNL1        0.2095
@<TRIPOS>BOND
     1     1    10    1
     2     1    11    1
     3     2    12    1
     4    15     2    1
     5     3    13    1
     6     3    30    1
     7     4    15    1
     8     4    20    1
     9    16     5    1
    10     5    35    1
    11    18     6    1
    12     6    36    1
    13    19     7    1
    14     7    37    1
    15     8    21    1
    16     8    38    1
    17     9    17    3
    18    10    11    1
    19    10    12    1
    20    10    22    1
    21    11    13    1
    22    11    23    1
    23    12    14    1
    24    12    17    1
    25    13    14    1
    26    13    24    1
    27    14    25    1
    28    14    26    1
    29    15    16    1
    30    15    27    1
    31    16    18    1
    32    16    28    1
    33    18    19    1
    34    18    29    1
    35    19    20    1
    36    19    31    1
    37    20    21    1
    38    20    32    1
    39    21    33    1
    40    21    34    1
