@<TRIPOS>MOLECULE
IMPHY001866
 57 59 0 0 0
SMALL
GASTEIGER

@<TRIPOS>ATOM
      1 O           6.0682    0.7500    0.0000 O.3     1  UNL1       -0.4827
      2 O           6.0682    3.7500    0.0000 O.2     1  UNL1       -0.2918
      3 O           2.5381    0.7258    0.0000 O.3     1  UNL1       -0.5064
      4 O          10.3984   -0.7500    0.0000 O.3     1  UNL1       -0.5065
      5 C           6.9343    1.2500    0.0000 C.3     1  UNL1        0.1322
      6 C           6.9343    2.2500    0.0000 C.3     1  UNL1        0.0519
      7 C           7.8003    0.7500    0.0000 C.ar    1  UNL1       -0.0064
      8 C           5.2022    1.2500    0.0000 C.ar    1  UNL1        0.1388
      9 C           5.2022    2.2500    0.0000 C.ar    1  UNL1        0.0597
     10 C           6.0682    2.7500    0.0000 C.2     1  UNL1        0.1705
     11 C           4.3083    0.7153    0.0000 C.ar    1  UNL1        0.0400
     12 C           7.8003   -0.2500    0.0000 C.ar    1  UNL1       -0.0481
     13 C           4.3198   -0.2846    0.0000 C.3     1  UNL1       -0.0023
     14 C           8.6663   -0.7500    0.0000 C.ar    1  UNL1       -0.0019
     15 C           8.6663    1.2500    0.0000 C.ar    1  UNL1       -0.0516
     16 C           4.3083    2.7847    0.0000 C.ar    1  UNL1       -0.0443
     17 C           3.4022    1.2292    0.0000 C.ar    1  UNL1        0.1238
     18 C           3.4022    2.2708    0.0000 C.ar    1  UNL1       -0.0190
     19 C           9.5323   -0.2500    0.0000 C.ar    1  UNL1        0.1203
     20 C           8.6663   -1.7500    0.0000 C.3     1  UNL1       -0.0058
     21 C           9.5323    0.7500    0.0000 C.ar    1  UNL1       -0.0195
     22 C           3.4597   -0.7946    0.0000 C.2     1  UNL1       -0.0807
     23 C           9.5323   -2.2500    0.0000 C.2     1  UNL1       -0.0809
     24 C           3.4712   -1.7945    0.0000 C.2     1  UNL1       -0.0793
     25 C           9.5323   -3.2500    0.0000 C.2     1  UNL1       -0.0793
     26 C           2.6110   -2.3045    0.0000 C.3     1  UNL1       -0.0440
     27 C           4.3430   -2.2845    0.0000 C.3     1  UNL1       -0.0440
     28 C          10.3984   -3.7500    0.0000 C.3     1  UNL1       -0.0440
     29 C           8.6663   -3.7500    0.0000 C.3     1  UNL1       -0.0440
     30 H           6.9343    0.6300    0.0000 H       1  UNL1        0.0789
     31 H           7.5449    2.1423    0.0000 H       1  UNL1        0.0385
     32 H           7.1463    2.8326    0.0000 H       1  UNL1        0.0385
     33 H           7.2634   -0.5600    0.0000 H       1  UNL1        0.0625
     34 H           4.5386   -0.8647    0.0000 H       1  UNL1        0.0358
     35 H           4.9291   -0.1699    0.0000 H       1  UNL1        0.0358
     36 H           8.6663    1.8700    0.0000 H       1  UNL1        0.0623
     37 H           4.3154    3.4046    0.0000 H       1  UNL1        0.0627
     38 H           2.8665    2.5829    0.0000 H       1  UNL1        0.0654
     39 H           8.0558   -1.6423    0.0000 H       1  UNL1        0.0357
     40 H           8.4543   -2.3326    0.0000 H       1  UNL1        0.0357
     41 H          10.0693    1.0600    0.0000 H       1  UNL1        0.0654
     42 H           2.9192   -0.4908    0.0000 H       1  UNL1        0.0575
     43 H          10.0693   -1.9400    0.0000 H       1  UNL1        0.0575
     44 H           2.0000    1.0338    0.0000 H       1  UNL1        0.2921
     45 H          10.9353   -0.4400    0.0000 H       1  UNL1        0.2921
     46 H           2.2948   -1.7712    0.0000 H       1  UNL1        0.0274
     47 H           2.0777   -2.6207    0.0000 H       1  UNL1        0.0274
     48 H           2.9272   -2.8378    0.0000 H       1  UNL1        0.0274
     49 H           4.0392   -2.8250    0.0000 H       1  UNL1        0.0274
     50 H           4.8835   -2.5882    0.0000 H       1  UNL1        0.0274
     51 H           4.6468   -1.7440    0.0000 H       1  UNL1        0.0274
     52 H          10.0884   -4.2869    0.0000 H       1  UNL1        0.0274
     53 H           8.3563   -3.2131    0.0000 H       1  UNL1        0.0274
     54 H           8.1294   -4.0600    0.0000 H       1  UNL1        0.0274
     55 H           8.9763   -4.2869    0.0000 H       1  UNL1        0.0274
     56 H          10.9353   -4.0600    0.0000 H       1  UNL1        0.0274
     57 H          10.7084   -3.2131    0.0000 H       1  UNL1        0.0274
@<TRIPOS>BOND
     1     1     5    1
     2     1     8    1
     3     2    10    2
     4     3    17    1
     5     3    44    1
     6     4    19    1
     7     4    45    1
     8     5     6    1
     9     5     7    1
    10     5    30    1
    11     6    10    1
    12     6    31    1
    13     6    32    1
    14     7    12   ar
    15     7    15   ar
    16     8     9   ar
    17     8    11   ar
    18     9    10    1
    19     9    16   ar
    20    11    13    1
    21    11    17   ar
    22    12    14   ar
    23    12    33    1
    24    13    22    1
    25    13    34    1
    26    13    35    1
    27    14    19   ar
    28    14    20    1
    29    15    21   ar
    30    15    36    1
    31    16    18   ar
    32    16    37    1
    33    17    18   ar
    34    18    38    1
    35    19    21   ar
    36    20    23    1
    37    20    39    1
    38    20    40    1
    39    21    41    1
    40    22    24    2
    41    22    42    1
    42    23    25    2
    43    23    43    1
    44    24    26    1
    45    24    27    1
    46    25    28    1
    47    25    29    1
    48    26    46    1
    49    26    47    1
    50    26    48    1
    51    27    49    1
    52    27    50    1
    53    27    51    1
    54    28    52    1
    55    28    56    1
    56    28    57    1
    57    29    53    1
    58    29    54    1
    59    29    55    1
