@<TRIPOS>MOLECULE
IMPHY014446
 190 203 0 0 0
SMALL
GASTEIGER

@<TRIPOS>ATOM
      1 O           5.5779   21.1458    0.0000 O.3     1  UNL1       -0.3378
      2 O           4.5532    5.3026    0.0000 O.3     2  UNL2       -0.3378
      3 O           5.7100   24.6828    0.0000 O.3     1  UNL1       -0.3853
      4 O           4.6853    8.8397    0.0000 O.3     2  UNL2       -0.3853
      5 O           8.3080   23.1828    0.0000 O.3     1  UNL1       -0.3852
      6 O           7.2834    7.3397    0.0000 O.3     2  UNL2       -0.3852
      7 O           2.9832   20.8956    0.0000 O.3     1  UNL1       -0.3615
      8 O           1.9585    5.0525    0.0000 O.3     2  UNL2       -0.3615
      9 O           8.3080   26.1828    0.0000 O.3     1  UNL1       -0.3827
     10 O           7.2834   10.3397    0.0000 O.3     2  UNL2       -0.3827
     11 O           2.8095    3.3518    0.0000 O.3     2  UNL2       -0.4527
     12 O           3.8342   19.1949    0.0000 O.3     1  UNL1       -0.4524
     13 O           6.9420   26.5488    0.0000 O.3     1  UNL1       -0.3887
     14 O           5.9173   10.7057    0.0000 O.3     2  UNL2       -0.3887
     15 O           9.6919   26.5892    0.0000 O.3     1  UNL1       -0.3843
     16 O           8.6673   10.7461    0.0000 O.3     2  UNL2       -0.3843
     17 O           4.2155    2.3403    0.0000 O.2     2  UNL2       -0.2453
     18 O           5.2402   18.1834    0.0000 O.2     1  UNL1       -0.2449
     19 O           1.0873   16.8594    0.0000 O.3     1  UNL1       -0.4914
     20 O           1.9094   15.0361    0.0000 O.3     1  UNL1       -0.4915
     21 N          10.1080   24.1620    0.0000 N.3     1  UNL1       -0.2959
     22 N           9.0834    8.3189    0.0000 N.3     2  UNL2       -0.2959
     23 C           6.2441   22.6079    0.0000 C.3     1  UNL1        0.0869
     24 C           5.2194    6.7648    0.0000 C.3     2  UNL2        0.0869
     25 C           5.6492   21.7604    0.0000 C.3     1  UNL1        0.0055
     26 C           4.6245    5.9173    0.0000 C.3     2  UNL2        0.0055
     27 C           5.8390   23.5157    0.0000 C.3     1  UNL1        0.0205
     28 C           4.8143    7.6726    0.0000 C.3     2  UNL2        0.0205
     29 C           6.5760   24.1828    0.0000 C.3     1  UNL1        0.1029
     30 C           5.5513    8.3397    0.0000 C.3     2  UNL2        0.1029
     31 C           7.4420   23.6828    0.0000 C.3     1  UNL1        0.1044
     32 C           6.4173    7.8397    0.0000 C.3     2  UNL2        0.1044
     33 C           4.6185   21.8598    0.0000 C.3     1  UNL1        0.0247
     34 C           3.5938    6.0167    0.0000 C.3     2  UNL2        0.0247
     35 C           7.2328   22.7110    0.0000 C.3     1  UNL1        0.0093
     36 C           6.2081    6.8679    0.0000 C.3     2  UNL2        0.0093
     37 C           3.9786   20.9916    0.0000 C.3     1  UNL1        0.2091
     38 C           2.9539    5.1485    0.0000 C.3     2  UNL2        0.2091
     39 C           8.3080   24.1828    0.0000 C.3     1  UNL1        0.0374
     40 C           7.2834    8.3397    0.0000 C.3     2  UNL2        0.0374
     41 C           4.8109   23.6389    0.0000 C.3     1  UNL1       -0.0444
     42 C           3.7862    7.7958    0.0000 C.3     2  UNL2       -0.0444
     43 C           4.1965   22.8054    0.0000 C.3     1  UNL1       -0.0442
     44 C           3.1718    6.9623    0.0000 C.3     2  UNL2       -0.0442
     45 C           8.3080   25.1828    0.0000 C.3     1  UNL1        0.1281
     46 C           7.2834    9.3397    0.0000 C.3     2  UNL2        0.1281
     47 C           6.1114   20.7859    0.0000 C.3     1  UNL1       -0.0410
     48 C           5.0867    4.9428    0.0000 C.3     2  UNL2       -0.0410
     49 C           6.5760   25.1828    0.0000 C.3     1  UNL1        0.0080
     50 C           5.5513    9.3397    0.0000 C.3     2  UNL2        0.0080
     51 C           7.4420   25.6828    0.0000 C.3     1  UNL1        0.0897
     52 C           6.4173    9.8397    0.0000 C.3     2  UNL2        0.0897
     53 C           4.4181   20.0066    0.0000 C.3     1  UNL1        0.1570
     54 C           3.3934    4.1635    0.0000 C.3     2  UNL2        0.1570
     55 C           6.6446   21.6644    0.0000 C.3     1  UNL1       -0.0565
     56 C           5.6199    5.8213    0.0000 C.3     2  UNL2       -0.0565
     57 C           5.4917   19.9031    0.0000 C.3     1  UNL1       -0.0099
     58 C           4.4670    4.0600    0.0000 C.3     2  UNL2       -0.0099
     59 C           9.2020   25.7174    0.0000 C.3     1  UNL1        0.1100
     60 C           8.1773    9.8743    0.0000 C.3     2  UNL2        0.1100
     61 C           9.2020   23.6481    0.0000 C.3     1  UNL1        0.0076
     62 C           8.1773    7.8050    0.0000 C.3     2  UNL2        0.0076
     63 C          10.1080   25.2036    0.0000 C.3     1  UNL1        0.0417
     64 C           9.0834    9.3605    0.0000 C.3     2  UNL2        0.0417
     65 C           9.0170   26.7002    0.0000 C.3     1  UNL1       -0.0318
     66 C           7.9923   10.8571    0.0000 C.3     2  UNL2       -0.0318
     67 C          11.0392   25.7605    0.0000 C.3     1  UNL1       -0.0343
     68 C          10.0145    9.9174    0.0000 C.3     2  UNL2       -0.0343
     69 C          11.0392   23.6051    0.0000 C.3     1  UNL1        0.0019
     70 C          10.0145    7.7619    0.0000 C.3     2  UNL2        0.0019
     71 C          11.9830   24.1403    0.0000 C.3     1  UNL1       -0.0310
     72 C          10.9583    8.2972    0.0000 C.3     2  UNL2       -0.0310
     73 C          11.9830   25.2253    0.0000 C.3     1  UNL1       -0.0478
     74 C          10.9583    9.3822    0.0000 C.3     2  UNL2       -0.0478
     75 C           3.2205    2.4401    0.0000 C.2     2  UNL2        0.3350
     76 C           4.2452   18.2832    0.0000 C.2     1  UNL1        0.3397
     77 C          12.8471   23.6370    0.0000 C.3     1  UNL1       -0.0613
     78 C          11.8224    7.7938    0.0000 C.3     2  UNL2       -0.0613
     79 C           2.6366    1.6284    0.0000 C.2     2  UNL2        0.0293
     80 C           3.6612   17.4715    0.0000 C.ar    1  UNL1        0.0627
     81 C           1.6416    1.7282    0.0000 C.3     2  UNL2       -0.0333
     82 C           2.6662   17.5713    0.0000 C.ar    1  UNL1       -0.0023
     83 C           3.0476    0.7167    0.0000 C.2     2  UNL2       -0.0774
     84 C           4.0723   16.5599    0.0000 C.ar    1  UNL1       -0.0441
     85 C           2.0823   16.7595    0.0000 C.ar    1  UNL1        0.1623
     86 C           3.4883   15.7481    0.0000 C.ar    1  UNL1       -0.0155
     87 C           4.0426    0.6169    0.0000 C.3     2  UNL2       -0.0461
     88 C           2.4933   15.8479    0.0000 C.ar    1  UNL1        0.1615
     89 C           0.5033   16.0476    0.0000 C.3     1  UNL1        0.0790
     90 C           2.3204   14.1245    0.0000 C.3     1  UNL1        0.0790
     91 H           5.4926   24.2919    0.0000 H       1  UNL1        0.0358
     92 H           4.4679    8.4488    0.0000 H       2  UNL2        0.0358
     93 H           3.7724   21.9414    0.0000 H       1  UNL1        0.0360
     94 H           2.7478    6.0983    0.0000 H       2  UNL2        0.0360
     95 H           7.2319   22.0910    0.0000 H       1  UNL1        0.0322
     96 H           7.8493   22.6449    0.0000 H       1  UNL1        0.0322
     97 H           6.2072    6.2479    0.0000 H       2  UNL2        0.0322
     98 H           6.8246    6.8018    0.0000 H       2  UNL2        0.0322
     99 H           9.0474   24.6021    0.0000 H       1  UNL1        0.0372
    100 H           8.0228    8.7590    0.0000 H       2  UNL2        0.0372
    101 H           4.9889   24.2328    0.0000 H       1  UNL1        0.0270
    102 H           4.2562   23.9159    0.0000 H       1  UNL1        0.0270
    103 H           3.9642    8.3897    0.0000 H       2  UNL2        0.0270
    104 H           3.2315    8.0728    0.0000 H       2  UNL2        0.0270
    105 H           3.7677   23.2532    0.0000 H       1  UNL1        0.0270
    106 H           3.6819   22.4596    0.0000 H       1  UNL1        0.0270
    107 H           2.7431    7.4101    0.0000 H       2  UNL2        0.0270
    108 H           2.6572    6.6164    0.0000 H       2  UNL2        0.0270
    109 H           6.5504   20.3481    0.0000 H       1  UNL1        0.0273
    110 H           6.6178   21.1435    0.0000 H       1  UNL1        0.0273
    111 H           5.5257    4.5050    0.0000 H       2  UNL2        0.0273
    112 H           5.5932    5.3004    0.0000 H       2  UNL2        0.0273
    113 H           6.3639   25.7654    0.0000 H       1  UNL1        0.0320
    114 H           5.9654   25.0751    0.0000 H       1  UNL1        0.0320
    115 H           5.3393    9.9223    0.0000 H       2  UNL2        0.0320
    116 H           4.9407    9.2320    0.0000 H       2  UNL2        0.0320
    117 H           7.8804   26.1212    0.0000 H       1  UNL1        0.0624
    118 H           6.8558   10.2781    0.0000 H       2  UNL2        0.0624
    119 H           3.8013   20.0697    0.0000 H       1  UNL1        0.0789
    120 H           2.7767    4.2266    0.0000 H       2  UNL2        0.0789
    121 H           6.5850   21.0473    0.0000 H       1  UNL1        0.0236
    122 H           7.2617   21.6049    0.0000 H       1  UNL1        0.0236
    123 H           6.7041   22.2815    0.0000 H       1  UNL1        0.0236
    124 H           5.5604    5.2042    0.0000 H       2  UNL2        0.0236
    125 H           6.2370    5.7618    0.0000 H       2  UNL2        0.0236
    126 H           5.6794    6.4384    0.0000 H       2  UNL2        0.0236
    127 H           5.3275   19.3053    0.0000 H       1  UNL1        0.0303
    128 H           6.0526   19.6390    0.0000 H       1  UNL1        0.0303
    129 H           4.3028    3.4621    0.0000 H       2  UNL2        0.0303
    130 H           5.0280    3.7959    0.0000 H       2  UNL2        0.0303
    131 H           8.7974   23.1783    0.0000 H       1  UNL1        0.0431
    132 H           9.5956   23.1691    0.0000 H       1  UNL1        0.0431
    133 H           7.7727    7.3352    0.0000 H       2  UNL2        0.0431
    134 H           8.5709    7.3260    0.0000 H       2  UNL2        0.0431
    135 H          10.0982   26.0535    0.0000 H       1  UNL1        0.0492
    136 H           9.0735   10.2104    0.0000 H       2  UNL2        0.0492
    137 H           5.7100   25.3028    0.0000 H       1  UNL1        0.2103
    138 H           4.6853    9.4597    0.0000 H       2  UNL2        0.2103
    139 H           8.3080   22.5628    0.0000 H       1  UNL1        0.2103
    140 H           7.2834    6.7197    0.0000 H       2  UNL2        0.2103
    141 H           2.7261   20.3314    0.0000 H       1  UNL1        0.2129
    142 H           1.7015    4.4883    0.0000 H       2  UNL2        0.2129
    143 H           7.9980   26.7197    0.0000 H       1  UNL1        0.2104
    144 H           6.9734   10.8766    0.0000 H       2  UNL2        0.2104
    145 H           9.6262   26.8149    0.0000 H       1  UNL1        0.0259
    146 H           8.9022   27.3095    0.0000 H       1  UNL1        0.0259
    147 H           8.4077   26.5855    0.0000 H       1  UNL1        0.0259
    148 H           8.6016   10.9718    0.0000 H       2  UNL2        0.0259
    149 H           7.8776   11.4664    0.0000 H       2  UNL2        0.0259
    150 H           7.3830   10.7424    0.0000 H       2  UNL2        0.0259
    151 H          11.4328   26.2395    0.0000 H       1  UNL1        0.0281
    152 H          10.6346   26.2303    0.0000 H       1  UNL1        0.0281
    153 H          10.4082   10.3964    0.0000 H       2  UNL2        0.0281
    154 H           9.6099   10.3872    0.0000 H       2  UNL2        0.0281
    155 H          10.6346   23.1353    0.0000 H       1  UNL1        0.0429
    156 H          11.4328   23.1260    0.0000 H       1  UNL1        0.0429
    157 H           9.6099    7.2922    0.0000 H       2  UNL2        0.0429
    158 H          10.4082    7.2829    0.0000 H       2  UNL2        0.0429
    159 H           6.3220   26.5488    0.0000 H       1  UNL1        0.2099
    160 H           5.2973   10.7057    0.0000 H       2  UNL2        0.2099
    161 H          10.3119   26.5964    0.0000 H       1  UNL1        0.2103
    162 H           9.2872   10.7533    0.0000 H       2  UNL2        0.2103
    163 H          11.9794   23.5203    0.0000 H       1  UNL1        0.0310
    164 H          10.9547    7.6772    0.0000 H       2  UNL2        0.0310
    165 H          12.5938   25.1192    0.0000 H       1  UNL1        0.0269
    166 H          12.1920   25.8090    0.0000 H       1  UNL1        0.0269
    167 H          11.5692    9.2761    0.0000 H       2  UNL2        0.0269
    168 H          11.1674    9.9659    0.0000 H       2  UNL2        0.0269
    169 H          12.5350   23.1012    0.0000 H       1  UNL1        0.0233
    170 H          13.3828   23.3249    0.0000 H       1  UNL1        0.0233
    171 H          13.1591   24.1727    0.0000 H       1  UNL1        0.0233
    172 H          11.5103    7.2581    0.0000 H       2  UNL2        0.0233
    173 H          12.3582    7.4818    0.0000 H       2  UNL2        0.0233
    174 H          12.1345    8.3296    0.0000 H       2  UNL2        0.0233
    175 H           1.7035    2.3451    0.0000 H       2  UNL2        0.0280
    176 H           1.0247    1.7901    0.0000 H       2  UNL2        0.0280
    177 H           1.5797    1.1113    0.0000 H       2  UNL2        0.0280
    178 H           2.4114   18.1365    0.0000 H       1  UNL1        0.0663
    179 H           2.6856    0.2134    0.0000 H       2  UNL2        0.0574
    180 H           4.6892   16.4980    0.0000 H       1  UNL1        0.0627
    181 H           3.7432   15.1829    0.0000 H       1  UNL1        0.0655
    182 H           3.9807    0.0000    0.0000 H       2  UNL2        0.0272
    183 H           4.6595    0.5550    0.0000 H       2  UNL2        0.0272
    184 H           4.1045    1.2338    0.0000 H       2  UNL2        0.0272
    185 H           0.0000   16.4096    0.0000 H       1  UNL1        0.0660
    186 H           0.1412   15.5443    0.0000 H       1  UNL1        0.0660
    187 H           1.0066   15.6855    0.0000 H       1  UNL1        0.0660
    188 H           1.7552   13.8697    0.0000 H       1  UNL1        0.0660
    189 H           2.5752   13.5593    0.0000 H       1  UNL1        0.0660
    190 H           2.8856   14.3794    0.0000 H       1  UNL1        0.0660
@<TRIPOS>BOND
     1     1    23    1
     2     1    37    1
     3     2    24    1
     4     2    38    1
     5    29     3    1
     6     3   137    1
     7    30     4    1
     8     4   138    1
     9    31     5    1
    10     5   139    1
    11    32     6    1
    12     6   140    1
    13    37     7    1
    14     7   141    1
    15    38     8    1
    16     8   142    1
    17    45     9    1
    18     9   143    1
    19    46    10    1
    20    10   144    1
    21    54    11    1
    22    11    75    1
    23    53    12    1
    24    12    76    1
    25    51    13    1
    26    13   159    1
    27    52    14    1
    28    14   160    1
    29    59    15    1
    30    15   161    1
    31    60    16    1
    32    16   162    1
    33    17    75    2
    34    18    76    2
    35    19    85    1
    36    19    89    1
    37    20    88    1
    38    20    90    1
    39    21    61    1
    40    21    63    1
    41    21    69    1
    42    22    62    1
    43    22    64    1
    44    22    70    1
    45    23    25    1
    46    23    27    1
    47    23    35    1
    48    24    26    1
    49    24    28    1
    50    24    36    1
    51    25    33    1
    52    25    47    1
    53    25    55    1
    54    26    34    1
    55    26    48    1
    56    26    56    1
    57    27    29    1
    58    27    41    1
    59    27    91    1
    60    28    30    1
    61    28    42    1
    62    28    92    1
    63    29    31    1
    64    29    49    1
    65    30    32    1
    66    30    50    1
    67    31    35    1
    68    31    39    1
    69    32    36    1
    70    32    40    1
    71    33    37    1
    72    33    43    1
    73    33    93    1
    74    34    38    1
    75    34    44    1
    76    34    94    1
    77    35    95    1
    78    35    96    1
    79    36    97    1
    80    36    98    1
    81    37    53    1
    82    38    54    1
    83    39    45    1
    84    39    61    1
    85    39    99    1
    86    40    46    1
    87    40    62    1
    88    40   100    1
    89    41    43    1
    90    41   101    1
    91    41   102    1
    92    42    44    1
    93    42   103    1
    94    42   104    1
    95    43   105    1
    96    43   106    1
    97    44   107    1
    98    44   108    1
    99    45    51    1
   100    45    59    1
   101    46    52    1
   102    46    60    1
   103    47    57    1
   104    47   109    1
   105    47   110    1
   106    48    58    1
   107    48   111    1
   108    48   112    1
   109    49    51    1
   110    49   113    1
   111    49   114    1
   112    50    52    1
   113    50   115    1
   114    50   116    1
   115    51   117    1
   116    52   118    1
   117    53    57    1
   118    53   119    1
   119    54    58    1
   120    54   120    1
   121    55   121    1
   122    55   122    1
   123    55   123    1
   124    56   124    1
   125    56   125    1
   126    56   126    1
   127    57   127    1
   128    57   128    1
   129    58   129    1
   130    58   130    1
   131    59    63    1
   132    59    65    1
   133    60    64    1
   134    60    66    1
   135    61   131    1
   136    61   132    1
   137    62   133    1
   138    62   134    1
   139    63    67    1
   140    63   135    1
   141    64    68    1
   142    64   136    1
   143    65   145    1
   144    65   146    1
   145    65   147    1
   146    66   148    1
   147    66   149    1
   148    66   150    1
   149    67    73    1
   150    67   151    1
   151    67   152    1
   152    68    74    1
   153    68   153    1
   154    68   154    1
   155    69    71    1
   156    69   155    1
   157    69   156    1
   158    70    72    1
   159    70   157    1
   160    70   158    1
   161    71    73    1
   162    71    77    1
   163    71   163    1
   164    72    74    1
   165    72    78    1
   166    72   164    1
   167    73   165    1
   168    73   166    1
   169    74   167    1
   170    74   168    1
   171    75    79    1
   172    76    80    1
   173    77   169    1
   174    77   170    1
   175    77   171    1
   176    78   172    1
   177    78   173    1
   178    78   174    1
   179    79    81    1
   180    79    83    2
   181    80    82   ar
   182    80    84   ar
   183    81   175    1
   184    81   176    1
   185    81   177    1
   186    82    85   ar
   187    82   178    1
   188    83    87    1
   189    83   179    1
   190    84    86   ar
   191    84   180    1
   192    85    88   ar
   193    86    88   ar
   194    86   181    1
   195    87   182    1
   196    87   183    1
   197    87   184    1
   198    89   185    1
   199    89   186    1
   200    89   187    1
   201    90   188    1
   202    90   189    1
   203    90   190    1
