@<TRIPOS>MOLECULE
IMPHY006041
 40 41 0 0 0
SMALL
GASTEIGER

@<TRIPOS>ATOM
      1 O           4.7717   -1.5720    0.0000 O.3     1  UNL1       -0.3760
      2 O           4.5981   -2.3192    0.0000 O.2     1  UNL1       -0.2976
      3 O           2.0000   -0.0872    0.0000 O.2     1  UNL1       -0.2959
      4 C           5.4641   -0.0872    0.0000 C.3     1  UNL1        0.0112
      5 C           5.4641    0.9128    0.0000 C.3     1  UNL1       -0.0237
      6 C           6.3580    1.4475    0.0000 C.3     1  UNL1       -0.0312
      7 C           6.3580   -0.6218    0.0000 C.3     1  UNL1       -0.0440
      8 C           4.5981   -0.5872    0.0000 C.3     1  UNL1        0.1536
      9 C           7.2641    0.9336    0.0000 C.3     1  UNL1       -0.0476
     10 C           7.2641   -0.1080    0.0000 C.3     1  UNL1       -0.0519
     11 C           4.5981    1.4128    0.0000 C.3     1  UNL1       -0.0301
     12 C           5.8062   -1.0268    0.0000 C.3     1  UNL1       -0.0559
     13 C           6.8480    2.3192    0.0000 C.3     1  UNL1       -0.0595
     14 C           5.8481    2.3077    0.0000 C.3     1  UNL1       -0.0595
     15 C           3.7320   -0.0872    0.0000 C.2     1  UNL1        0.0266
     16 C           3.7320    0.9128    0.0000 C.2     1  UNL1       -0.0743
     17 C           4.0981   -1.4532    0.0000 C.2     1  UNL1        0.1568
     18 C           2.8660   -0.5872    0.0000 C.2     1  UNL1        0.1491
     19 H           5.4576    1.7628    0.0000 H       1  UNL1        0.0315
     20 H           5.9534   -1.0916    0.0000 H       1  UNL1        0.0272
     21 H           6.7517   -1.1009    0.0000 H       1  UNL1        0.0272
     22 H           7.8750    0.8275    0.0000 H       1  UNL1        0.0271
     23 H           7.4732    1.5173    0.0000 H       1  UNL1        0.0271
     24 H           7.4732   -0.6917    0.0000 H       1  UNL1        0.0266
     25 H           7.8750   -0.0019    0.0000 H       1  UNL1        0.0266
     26 H           4.9966    1.8878    0.0000 H       1  UNL1        0.0311
     27 H           4.1996    1.8878    0.0000 H       1  UNL1        0.0311
     28 H           5.2236   -1.2390    0.0000 H       1  UNL1        0.0236
     29 H           6.0183   -1.6094    0.0000 H       1  UNL1        0.0236
     30 H           6.3888   -0.8147    0.0000 H       1  UNL1        0.0236
     31 H           7.3885    2.0155    0.0000 H       1  UNL1        0.0235
     32 H           7.1518    2.8597    0.0000 H       1  UNL1        0.0235
     33 H           6.3075    2.6230    0.0000 H       1  UNL1        0.0235
     34 H           6.3814    2.6239    0.0000 H       1  UNL1        0.0235
     35 H           5.5319    2.8410    0.0000 H       1  UNL1        0.0235
     36 H           5.3148    1.9915    0.0000 H       1  UNL1        0.0235
     37 H           3.1951    1.2228    0.0000 H       1  UNL1        0.0577
     38 H           3.4781   -1.4532    0.0000 H       1  UNL1        0.1061
     39 H           5.3543   -1.7840    0.0000 H       1  UNL1        0.2112
     40 H           2.8660   -1.2072    0.0000 H       1  UNL1        0.1079
@<TRIPOS>BOND
     1     8     1    1
     2     1    39    1
     3     2    17    2
     4     3    18    2
     5     4     5    1
     6     4     7    1
     7     4     8    1
     8     4    12    1
     9     5     6    1
    10     5    11    1
    11     5    19    1
    12     6     9    1
    13     6    13    1
    14     6    14    1
    15     7    10    1
    16     7    20    1
    17     7    21    1
    18     8    15    1
    19     8    17    1
    20     9    10    1
    21     9    22    1
    22     9    23    1
    23    10    24    1
    24    10    25    1
    25    11    16    1
    26    11    26    1
    27    11    27    1
    28    12    28    1
    29    12    29    1
    30    12    30    1
    31    13    31    1
    32    13    32    1
    33    13    33    1
    34    14    34    1
    35    14    35    1
    36    14    36    1
    37    15    16    2
    38    15    18    1
    39    16    37    1
    40    17    38    1
    41    18    40    1
