@<TRIPOS>MOLECULE
IMPHY008387
 56 58 0 0 0
SMALL
GASTEIGER

@<TRIPOS>ATOM
      1 O           9.3148   -1.9101    0.0000 O.3     1  UNL1       -0.5064
      2 O           2.3053   -1.9101    0.0000 O.3     1  UNL1       -0.4948
      3 N           5.8101   -0.9976    0.0000 N.ar    1  UNL1       -0.3537
      4 C           6.6191   -1.5854    0.0000 C.ar    1  UNL1        0.0545
      5 C           6.3101   -2.5364    0.0000 C.ar    1  UNL1        0.0079
      6 C           5.3101   -2.5364    0.0000 C.ar    1  UNL1        0.0079
      7 C           7.6345   -1.3531    0.0000 C.ar    1  UNL1        0.0216
      8 C           5.0010   -1.5854    0.0000 C.ar    1  UNL1        0.0510
      9 C           7.9325   -0.3985    0.0000 C.3     1  UNL1       -0.0038
     10 C           6.9950   -3.3211    0.0000 C.ar    1  UNL1       -0.0485
     11 C           4.6251   -3.3211    0.0000 C.ar    1  UNL1       -0.0456
     12 C           8.3374   -2.1218    0.0000 C.ar    1  UNL1        0.1223
     13 C           3.9856   -1.3531    0.0000 C.ar    1  UNL1        0.0042
     14 C           3.6046   -3.1124    0.0000 C.ar    1  UNL1       -0.0081
     15 C           8.0155   -3.1124    0.0000 C.ar    1  UNL1       -0.0192
     16 C           3.2827   -2.1218    0.0000 C.ar    1  UNL1        0.1250
     17 C           8.9081   -0.1793    0.0000 C.2     1  UNL1       -0.0805
     18 C           9.2061    0.7752    0.0000 C.2     1  UNL1       -0.0759
     19 C          10.1818    0.9945    0.0000 C.3     1  UNL1       -0.0286
     20 C          10.4798    1.9490    0.0000 C.3     1  UNL1       -0.0308
     21 C           2.9383   -3.8582    0.0000 C.3     1  UNL1       -0.0362
     22 C           8.5285    1.5106    0.0000 C.3     1  UNL1       -0.0438
     23 C          11.4555    2.1682    0.0000 C.2     1  UNL1       -0.0850
     24 C          11.7535    3.1228    0.0000 C.2     1  UNL1       -0.0796
     25 C           2.0000   -0.9579    0.0000 C.3     1  UNL1        0.0788
     26 C          12.7292    3.3420    0.0000 C.3     1  UNL1       -0.0440
     27 C          11.0758    3.8582    0.0000 C.3     1  UNL1       -0.0440
     28 H           5.8101   -0.3776    0.0000 H       1  UNL1        0.1659
     29 H           7.9037    0.2208    0.0000 H       1  UNL1        0.0357
     30 H           7.3176   -0.3193    0.0000 H       1  UNL1        0.0357
     31 H           6.7966   -3.9085    0.0000 H       1  UNL1        0.0625
     32 H           4.8235   -3.9085    0.0000 H       1  UNL1        0.0628
     33 H           3.8009   -0.7613    0.0000 H       1  UNL1        0.0675
     34 H           8.4286   -3.5748    0.0000 H       1  UNL1        0.0654
     35 H           9.3283   -0.6352    0.0000 H       1  UNL1        0.0575
     36 H          10.2106    0.3751    0.0000 H       1  UNL1        0.0313
     37 H          10.7967    0.9153    0.0000 H       1  UNL1        0.0313
     38 H          10.4510    2.5684    0.0000 H       1  UNL1        0.0310
     39 H           9.8649    2.0282    0.0000 H       1  UNL1        0.0310
     40 H           2.4760   -3.4451    0.0000 H       1  UNL1        0.0279
     41 H           2.5252   -4.3205    0.0000 H       1  UNL1        0.0279
     42 H           3.4006   -4.2712    0.0000 H       1  UNL1        0.0279
     43 H           8.9844    1.9308    0.0000 H       1  UNL1        0.0274
     44 H           8.1083    1.9665    0.0000 H       1  UNL1        0.0274
     45 H           8.0726    1.0904    0.0000 H       1  UNL1        0.0274
     46 H           9.7314   -2.3692    0.0000 H       1  UNL1        0.2921
     47 H          11.8757    1.7123    0.0000 H       1  UNL1        0.0572
     48 H           2.5904   -0.7685    0.0000 H       1  UNL1        0.0660
     49 H           1.8107   -0.3675    0.0000 H       1  UNL1        0.0660
     50 H           1.4096   -1.1472    0.0000 H       1  UNL1        0.0660
     51 H          12.8651    2.7371    0.0000 H       1  UNL1        0.0274
     52 H          13.3341    3.4779    0.0000 H       1  UNL1        0.0274
     53 H          12.5933    3.9469    0.0000 H       1  UNL1        0.0274
     54 H          11.5317    4.2783    0.0000 H       1  UNL1        0.0274
     55 H          10.6557    4.3141    0.0000 H       1  UNL1        0.0274
     56 H          10.6199    3.4380    0.0000 H       1  UNL1        0.0274
@<TRIPOS>BOND
     1     1    12    1
     2     1    46    1
     3     2    16    1
     4     2    25    1
     5     3     4   ar
     6     3     8   ar
     7     3    28    1
     8     4     5   ar
     9     4     7   ar
    10     5     6   ar
    11     5    10   ar
    12     6     8   ar
    13     6    11   ar
    14     7     9    1
    15     7    12   ar
    16     8    13   ar
    17     9    17    1
    18     9    29    1
    19     9    30    1
    20    10    15   ar
    21    10    31    1
    22    11    14   ar
    23    11    32    1
    24    12    15   ar
    25    13    16   ar
    26    13    33    1
    27    14    16   ar
    28    14    21    1
    29    15    34    1
    30    17    18    2
    31    17    35    1
    32    18    19    1
    33    18    22    1
    34    19    20    1
    35    19    36    1
    36    19    37    1
    37    20    23    1
    38    20    38    1
    39    20    39    1
    40    21    40    1
    41    21    41    1
    42    21    42    1
    43    22    43    1
    44    22    44    1
    45    22    45    1
    46    23    24    2
    47    23    47    1
    48    24    26    1
    49    24    27    1
    50    25    48    1
    51    25    49    1
    52    25    50    1
    53    26    51    1
    54    26    52    1
    55    26    53    1
    56    27    54    1
    57    27    55    1
    58    27    56    1
