@<TRIPOS>MOLECULE
IMPHY014554
 54 58 0 0 0
SMALL
GASTEIGER

@<TRIPOS>ATOM
      1 O           4.4850    3.0206    0.0000 O.3     1  UNL1       -0.3474
      2 O           6.2550    2.9965    0.0000 O.3     1  UNL1       -0.3662
      3 O           2.2700   -2.9034    0.0000 O.2     1  UNL1       -0.2744
      4 O           7.1110    1.4382    0.0000 O.3     1  UNL1       -0.4676
      5 O           6.2277   -0.0517    0.0000 O.2     1  UNL1       -0.2503
      6 N           2.7370   -0.0486    0.0000 N.3     1  UNL1       -0.2977
      7 N           4.0494   -2.9997    0.0000 N.am    1  UNL1       -0.2845
      8 C           3.6030   -0.5486    0.0000 C.3     1  UNL1        0.0288
      9 C           3.3938   -1.5205    0.0000 C.3     1  UNL1        0.0904
     10 C           4.4691    0.9514    0.0000 C.3     1  UNL1       -0.0156
     11 C           3.6030    1.4514    0.0000 C.3     1  UNL1        0.0017
     12 C           4.4691   -0.0486    0.0000 C.3     1  UNL1       -0.0319
     13 C           2.7370    0.9514    0.0000 C.3     1  UNL1        0.0047
     14 C           2.4051   -1.6235    0.0000 C.3     1  UNL1       -0.0206
     15 C           2.0000   -0.7157    0.0000 C.3     1  UNL1        0.0005
     16 C           5.3791    1.4582    0.0000 C.3     1  UNL1        0.1101
     17 C           3.5870    2.4929    0.0000 C.3     1  UNL1        0.0631
     18 C           4.3885   -1.4176    0.0000 C.ar    1  UNL1       -0.0097
     19 C           3.1842   -2.4982    0.0000 C.2     1  UNL1        0.2293
     20 C           5.3871    2.4998    0.0000 C.3     1  UNL1        0.1697
     21 C           4.7937   -2.3319    0.0000 C.ar    1  UNL1        0.0376
     22 C           2.7152    2.9828    0.0000 C.3     1  UNL1       -0.0383
     23 C           6.2392    0.9482    0.0000 C.2     1  UNL1        0.3151
     24 C           4.9892   -0.5667    0.0000 C.ar    1  UNL1       -0.0558
     25 C           5.8276   -2.4585    0.0000 C.ar    1  UNL1       -0.0402
     26 C           6.0258   -0.6693    0.0000 C.ar    1  UNL1       -0.0614
     27 C           6.4478   -1.6216    0.0000 C.ar    1  UNL1       -0.0600
     28 C           7.9712    0.9282    0.0000 C.3     1  UNL1        0.0817
     29 H           4.2901   -1.0492    0.0000 H       1  UNL1        0.0476
     30 H           5.2019    0.5207    0.0000 H       1  UNL1        0.0315
     31 H           2.8637    1.8707    0.0000 H       1  UNL1        0.0341
     32 H           4.6811   -0.6313    0.0000 H       1  UNL1        0.0284
     33 H           5.0796    0.0590    0.0000 H       1  UNL1        0.0284
     34 H           2.5250    1.5340    0.0000 H       1  UNL1        0.0430
     35 H           2.1264    0.8437    0.0000 H       1  UNL1        0.0430
     36 H           1.8155   -1.8153    0.0000 H       1  UNL1        0.0291
     37 H           2.5338   -2.2300    0.0000 H       1  UNL1        0.0291
     38 H           1.6346   -0.2149    0.0000 H       1  UNL1        0.0427
     39 H           1.4635   -1.0265    0.0000 H       1  UNL1        0.0427
     40 H           5.9190    1.7630    0.0000 H       1  UNL1        0.0466
     41 H           3.5810    3.1128    0.0000 H       1  UNL1        0.0597
     42 H           5.9222    2.1867    0.0000 H       1  UNL1        0.0916
     43 H           4.1131   -3.6165    0.0000 H       1  UNL1        0.1548
     44 H           3.0190    3.5233    0.0000 H       1  UNL1        0.0255
     45 H           2.1748    3.2866    0.0000 H       1  UNL1        0.0255
     46 H           2.4115    2.4423    0.0000 H       1  UNL1        0.0255
     47 H           4.7315   -0.0028    0.0000 H       1  UNL1        0.0621
     48 H           6.0722   -3.0282    0.0000 H       1  UNL1        0.0636
     49 H           6.2574    3.6165    0.0000 H       1  UNL1        0.2125
     50 H           6.3891   -0.1670    0.0000 H       1  UNL1        0.0618
     51 H           7.0640   -1.6899    0.0000 H       1  UNL1        0.0618
     52 H           7.6550    0.3949    0.0000 H       1  UNL1        0.0661
     53 H           8.5045    0.6120    0.0000 H       1  UNL1        0.0661
     54 H           8.2874    1.4615    0.0000 H       1  UNL1        0.0661
@<TRIPOS>BOND
     1     1    17    1
     2     1    20    1
     3    20     2    1
     4     2    49    1
     5     3    19    2
     6     4    23    1
     7     4    28    1
     8     5    23    2
     9     6     8    1
    10     6    13    1
    11     6    15    1
    12     7    19   am
    13     7    21    1
    14     7    43    1
    15     8     9    1
    16     8    12    1
    17     8    29    1
    18     9    14    1
    19     9    18    1
    20     9    19    1
    21    10    11    1
    22    10    12    1
    23    10    16    1
    24    10    30    1
    25    11    13    1
    26    11    17    1
    27    11    31    1
    28    12    32    1
    29    12    33    1
    30    13    34    1
    31    13    35    1
    32    14    15    1
    33    14    36    1
    34    14    37    1
    35    15    38    1
    36    15    39    1
    37    16    20    1
    38    16    23    1
    39    16    40    1
    40    17    22    1
    41    17    41    1
    42    18    21   ar
    43    18    24   ar
    44    20    42    1
    45    21    25   ar
    46    22    44    1
    47    22    45    1
    48    22    46    1
    49    24    26   ar
    50    24    47    1
    51    25    27   ar
    52    25    48    1
    53    26    27   ar
    54    26    50    1
    55    27    51    1
    56    28    52    1
    57    28    53    1
    58    28    54    1
