@<TRIPOS>MOLECULE
IMPHY009817
 18 18 0 0 0
SMALL
GASTEIGER

@<TRIPOS>ATOM
      1 C           2.8090    0.2694    0.0000 C.3     1  UNL1       -0.0439
      2 C           2.0000   -0.3184    0.0000 C.3     1  UNL1       -0.0505
      3 C           3.6180   -0.3184    0.0000 C.3     1  UNL1       -0.0505
      4 C           3.3090   -1.2694    0.0000 C.3     1  UNL1       -0.0528
      5 C           2.3090   -1.2694    0.0000 C.3     1  UNL1       -0.0528
      6 C           2.8090    1.2694    0.0000 C.3     1  UNL1       -0.0624
      7 H           3.3614    0.5509    0.0000 H       1  UNL1        0.0298
      8 H           4.1844   -0.5705    0.0000 H       1  UNL1        0.0268
      9 H           1.6900    0.2186    0.0000 H       1  UNL1        0.0268
     10 H           3.9280    0.2186    0.0000 H       1  UNL1        0.0268
     11 H           1.4336   -0.5705    0.0000 H       1  UNL1        0.0268
     12 H           3.2442   -1.8860    0.0000 H       1  UNL1        0.0265
     13 H           1.7026   -1.3983    0.0000 H       1  UNL1        0.0265
     14 H           2.3738   -1.8860    0.0000 H       1  UNL1        0.0265
     15 H           3.9155   -1.3983    0.0000 H       1  UNL1        0.0265
     16 H           3.4290    1.2694    0.0000 H       1  UNL1        0.0232
     17 H           2.8090    1.8894    0.0000 H       1  UNL1        0.0232
     18 H           2.1890    1.2694    0.0000 H       1  UNL1        0.0232
@<TRIPOS>BOND
     1     1     2    1
     2     1     3    1
     3     1     6    1
     4     1     7    1
     5     2     5    1
     6     2     9    1
     7     2    11    1
     8     3     4    1
     9     3     8    1
    10     3    10    1
    11     4     5    1
    12     4    12    1
    13     4    15    1
    14     5    13    1
    15     5    14    1
    16     6    16    1
    17     6    17    1
    18     6    18    1
