@<TRIPOS>MOLECULE
IMPHY009803
 119 125 0 0 0
SMALL
GASTEIGER

@<TRIPOS>ATOM
      1 O          16.5924    1.0707    0.0000 O.3     1  UNL1       -0.3685
      2 O          13.5238    1.0707    0.0000 O.3     1  UNL1       -0.3686
      3 O          15.0536   -0.4293    0.0000 O.3     1  UNL1       -0.3365
      4 O          13.3215   -0.4293    0.0000 O.3     1  UNL1       -0.3394
      5 O          15.0536   -2.4293    0.0000 O.3     1  UNL1       -0.3841
      6 O          13.3215   -3.4293    0.0000 O.3     1  UNL1       -0.3864
      7 O          11.5895   -2.4293    0.0000 O.3     1  UNL1       -0.3864
      8 O          10.7235   -0.9293    0.0000 O.3     1  UNL1       -0.4619
      9 O          18.5790   -2.0563    0.0000 O.3     1  UNL1       -0.4914
     10 O          11.5290    4.1889    0.0000 O.3     1  UNL1       -0.4914
     11 O          17.2407   -3.5426    0.0000 O.3     1  UNL1       -0.5033
     12 O          12.8647    5.6775    0.0000 O.3     1  UNL1       -0.5033
     13 O           5.0109   -4.2693    0.0000 O.3     1  UNL1       -0.3404
     14 O           6.3377   -3.1559    0.0000 O.3     1  UNL1       -0.3061
     15 O           9.8574    0.5707    0.0000 O.2     1  UNL1       -0.2508
     16 O           6.0370   -1.4503    0.0000 O.2     1  UNL1       -0.4666
     17 O           3.0826   -1.9712    0.0000 O.3     1  UNL1       -0.3864
     18 O           5.0522   -1.6239    0.0000 O.3     1  UNL1       -0.3841
     19 O           2.3985   -3.8506    0.0000 O.3     1  UNL1       -0.3865
     20 O           2.6993   -5.5563    0.0000 O.3     1  UNL1       -0.3924
     21 O           7.0630    1.3688    0.0000 O.3     1  UNL1       -0.4646
     22 O           8.6906    0.7764    0.0000 O.2     1  UNL1       -0.2452
     23 C          15.0536    0.5707    0.0000 C.3     1  UNL1        0.1333
     24 C          15.0536    1.5707    0.0000 C.3     1  UNL1        0.0469
     25 C          16.0047    0.2617    0.0000 C.3     1  UNL1        0.1153
     26 C          14.1074    1.8754    0.0000 C.3     1  UNL1        0.0916
     27 C          14.1074    0.2659    0.0000 C.3     1  UNL1        0.0808
     28 C          16.0047    1.8797    0.0000 C.3     1  UNL1        0.0569
     29 C          16.3137   -0.6894    0.0000 C.ar    1  UNL1       -0.0124
     30 C          14.1876   -0.9293    0.0000 C.3     1  UNL1        0.1888
     31 C          13.7967    2.8259    0.0000 C.ar    1  UNL1       -0.0148
     32 C          14.1876   -1.9293    0.0000 C.3     1  UNL1        0.1341
     33 C          13.3215   -2.4293    0.0000 C.3     1  UNL1        0.1141
     34 C          12.4555   -0.9293    0.0000 C.3     1  UNL1        0.1240
     35 C          12.4555   -1.9293    0.0000 C.3     1  UNL1        0.1129
     36 C          17.2918   -0.8973    0.0000 C.ar    1  UNL1       -0.0106
     37 C          15.6445   -1.4326    0.0000 C.ar    1  UNL1       -0.0523
     38 C          12.8182    3.0321    0.0000 C.ar    1  UNL1       -0.0107
     39 C          14.4646    3.5702    0.0000 C.ar    1  UNL1       -0.0524
     40 C          11.5895   -0.4293    0.0000 C.3     1  UNL1        0.1211
     41 C          17.6008   -1.8484    0.0000 C.ar    1  UNL1        0.1616
     42 C          12.5075    3.9827    0.0000 C.ar    1  UNL1        0.1616
     43 C          15.9536   -2.3836    0.0000 C.ar    1  UNL1       -0.0162
     44 C          14.1539    4.5207    0.0000 C.ar    1  UNL1       -0.0162
     45 C          16.9317   -2.5915    0.0000 C.ar    1  UNL1        0.1585
     46 C          13.1754    4.7270    0.0000 C.ar    1  UNL1        0.1585
     47 C           9.8574   -0.4293    0.0000 C.2     1  UNL1        0.3081
     48 C          18.8880   -3.0073    0.0000 C.3     1  UNL1        0.0790
     49 C          11.2184    5.1394    0.0000 C.3     1  UNL1        0.0790
     50 C           8.9914   -0.9293    0.0000 C.3     1  UNL1        0.0559
     51 C           8.0066   -1.1030    0.0000 C.3     1  UNL1        0.0307
     52 C           3.7254   -2.7373    0.0000 C.3     1  UNL1        0.1141
     53 C           4.7102   -2.5636    0.0000 C.3     1  UNL1        0.1343
     54 C           3.3833   -3.6770    0.0000 C.3     1  UNL1        0.1119
     55 C           5.3530   -3.3297    0.0000 C.3     1  UNL1        0.1921
     56 C           4.0261   -4.4430    0.0000 C.3     1  UNL1        0.1130
     57 C           7.6645   -2.0426    0.0000 C.2     1  UNL1        0.0019
     58 C           6.6798   -2.2163    0.0000 C.3     1  UNL1        0.2266
     59 C           7.3638   -0.3369    0.0000 C.2     1  UNL1        0.0785
     60 C           3.6840   -5.3826    0.0000 C.3     1  UNL1        0.0730
     61 C           6.3790   -0.5106    0.0000 C.2     1  UNL1        0.0988
     62 C           8.3073   -2.8087    0.0000 C.2     1  UNL1       -0.0814
     63 C           7.7058    0.6028    0.0000 C.2     1  UNL1        0.3384
     64 C           9.2922   -2.6351    0.0000 C.3     1  UNL1       -0.0464
     65 C           7.4051    2.3085    0.0000 C.3     1  UNL1        0.0820
     66 H          15.0528    2.1907    0.0000 H       1  UNL1        0.0381
     67 H          16.6170    0.1647    0.0000 H       1  UNL1        0.0676
     68 H          13.4949    1.9716    0.0000 H       1  UNL1        0.0651
     69 H          13.5700   -0.0433    0.0000 H       1  UNL1        0.0590
     70 H          14.3584   -0.3010    0.0000 H       1  UNL1        0.0590
     71 H          16.5416    2.1897    0.0000 H       1  UNL1        0.0565
     72 H          15.7525    2.4461    0.0000 H       1  UNL1        0.0565
     73 H          14.7245   -1.2393    0.0000 H       1  UNL1        0.0938
     74 H          14.1876   -2.5493    0.0000 H       1  UNL1        0.0671
     75 H          12.7846   -2.7393    0.0000 H       1  UNL1        0.0648
     76 H          12.4555   -0.3093    0.0000 H       1  UNL1        0.0658
     77 H          11.9186   -1.6193    0.0000 H       1  UNL1        0.0647
     78 H          17.7067   -0.4366    0.0000 H       1  UNL1        0.0659
     79 H          15.0381   -1.3036    0.0000 H       1  UNL1        0.0622
     80 H          12.4041    2.5707    0.0000 H       1  UNL1        0.0659
     81 H          15.0712    3.4424    0.0000 H       1  UNL1        0.0622
     82 H          11.9880    0.0456    0.0000 H       1  UNL1        0.0724
     83 H          11.1910    0.0456    0.0000 H       1  UNL1        0.0724
     84 H          15.5387   -2.8444    0.0000 H       1  UNL1        0.0655
     85 H          15.0536   -3.0493    0.0000 H       1  UNL1        0.2101
     86 H          14.5680    4.9822    0.0000 H       1  UNL1        0.0655
     87 H          12.7846   -3.7393    0.0000 H       1  UNL1        0.2100
     88 H          11.5895   -3.0493    0.0000 H       1  UNL1        0.2100
     89 H          16.8259   -4.0033    0.0000 H       1  UNL1        0.2923
     90 H          13.2788    6.1390    0.0000 H       1  UNL1        0.2923
     91 H          18.2983   -3.1989    0.0000 H       1  UNL1        0.0660
     92 H          19.0796   -3.5970    0.0000 H       1  UNL1        0.0660
     93 H          19.4777   -2.8158    0.0000 H       1  UNL1        0.0660
     94 H          11.8077    5.3320    0.0000 H       1  UNL1        0.0660
     95 H          11.0258    5.7287    0.0000 H       1  UNL1        0.0660
     96 H          10.6291    4.9468    0.0000 H       1  UNL1        0.0660
     97 H           8.8484   -1.5326    0.0000 H       1  UNL1        0.0387
     98 H           8.7794   -0.3467    0.0000 H       1  UNL1        0.0387
     99 H           8.4051   -1.5779    0.0000 H       1  UNL1        0.0404
    100 H           4.1239   -3.2122    0.0000 H       1  UNL1        0.0648
    101 H           4.3116   -2.0887    0.0000 H       1  UNL1        0.0671
    102 H           2.9848   -3.2020    0.0000 H       1  UNL1        0.0647
    103 H           5.5650   -2.7470    0.0000 H       1  UNL1        0.0939
    104 H           4.4246   -4.9180    0.0000 H       1  UNL1        0.0647
    105 H           7.0783   -2.6913    0.0000 H       1  UNL1        0.1109
    106 H           3.6841   -6.0026    0.0000 H       1  UNL1        0.0584
    107 H           4.2946   -5.4903    0.0000 H       1  UNL1        0.0584
    108 H           5.9805   -0.0356    0.0000 H       1  UNL1        0.1030
    109 H           8.0953   -3.3913    0.0000 H       1  UNL1        0.0571
    110 H           2.4720   -2.0789    0.0000 H       1  UNL1        0.2100
    111 H           4.6537   -1.1490    0.0000 H       1  UNL1        0.2101
    112 H           2.0000   -3.3757    0.0000 H       1  UNL1        0.2100
    113 H           9.3999   -3.2456    0.0000 H       1  UNL1        0.0272
    114 H           9.9028   -2.5274    0.0000 H       1  UNL1        0.0272
    115 H           9.1846   -2.0245    0.0000 H       1  UNL1        0.0272
    116 H           2.4872   -6.1390    0.0000 H       1  UNL1        0.2095
    117 H           7.9877    2.0964    0.0000 H       1  UNL1        0.0661
    118 H           7.6171    2.8911    0.0000 H       1  UNL1        0.0661
    119 H           6.8225    2.5206    0.0000 H       1  UNL1        0.0661
@<TRIPOS>BOND
     1     1    25    1
     2     1    28    1
     3     2    26    1
     4     2    27    1
     5     3    23    1
     6     3    30    1
     7     4    30    1
     8     4    34    1
     9     5    32    1
    10     5    85    1
    11     6    33    1
    12     6    87    1
    13     7    35    1
    14     7    88    1
    15     8    40    1
    16     8    47    1
    17     9    41    1
    18     9    48    1
    19    10    42    1
    20    10    49    1
    21    11    45    1
    22    11    89    1
    23    12    46    1
    24    12    90    1
    25    13    55    1
    26    13    56    1
    27    14    55    1
    28    14    58    1
    29    15    47    2
    30    16    58    1
    31    16    61    1
    32    17    52    1
    33    17   110    1
    34    18    53    1
    35    18   111    1
    36    19    54    1
    37    19   112    1
    38    20    60    1
    39    20   116    1
    40    21    63    1
    41    21    65    1
    42    22    63    2
    43    23    24    1
    44    23    25    1
    45    23    27    1
    46    24    26    1
    47    24    28    1
    48    24    66    1
    49    25    29    1
    50    25    67    1
    51    26    31    1
    52    26    68    1
    53    27    69    1
    54    27    70    1
    55    28    71    1
    56    28    72    1
    57    29    36   ar
    58    29    37   ar
    59    30    32    1
    60    30    73    1
    61    31    38   ar
    62    31    39   ar
    63    32    33    1
    64    32    74    1
    65    33    35    1
    66    33    75    1
    67    34    35    1
    68    34    40    1
    69    34    76    1
    70    35    77    1
    71    36    41   ar
    72    36    78    1
    73    37    43   ar
    74    37    79    1
    75    38    42   ar
    76    38    80    1
    77    39    44   ar
    78    39    81    1
    79    40    82    1
    80    40    83    1
    81    41    45   ar
    82    42    46   ar
    83    43    45   ar
    84    43    84    1
    85    44    46   ar
    86    44    86    1
    87    47    50    1
    88    48    91    1
    89    48    92    1
    90    48    93    1
    91    49    94    1
    92    49    95    1
    93    49    96    1
    94    50    51    1
    95    50    97    1
    96    50    98    1
    97    51    57    1
    98    51    59    1
    99    51    99    1
   100    52    53    1
   101    52    54    1
   102    52   100    1
   103    53    55    1
   104    53   101    1
   105    54    56    1
   106    54   102    1
   107    55   103    1
   108    56    60    1
   109    56   104    1
   110    57    58    1
   111    57    62    2
   112    58   105    1
   113    59    61    2
   114    59    63    1
   115    60   106    1
   116    60   107    1
   117    61   108    1
   118    62    64    1
   119    62   109    1
   120    64   113    1
   121    64   114    1
   122    64   115    1
   123    65   117    1
   124    65   118    1
   125    65   119    1
