@<TRIPOS>MOLECULE
IMPHY011415
 32 34 0 0 0
SMALL
GASTEIGER

@<TRIPOS>ATOM
      1 O           2.4847    3.1363    0.0000 O.2     1  UNL1       -0.2750
      2 O           3.6672   -2.7653    0.0000 O.2     1  UNL1       -0.2699
      3 N           5.9187    2.3878    0.0000 N.3     1  UNL1       -0.2947
      4 N           4.5332   -1.2653    0.0000 N.am    1  UNL1       -0.2760
      5 N           2.5797    1.5648    0.0000 N.am    1  UNL1       -0.3042
      6 C           5.0332    2.8525    0.0000 C.3     1  UNL1        0.0860
      7 C           6.6073    0.5721    0.0000 C.3     1  UNL1        0.0188
      8 C           6.2527   -0.3629    0.0000 C.3     1  UNL1        0.0229
      9 C           6.4868    1.5648    0.0000 C.3     1  UNL1        0.0688
     10 C           5.5042   -1.0260    0.0000 C.3     1  UNL1        0.0938
     11 C           4.0332    2.8525    0.0000 C.3     1  UNL1        0.1052
     12 C           3.5623   -1.0260    0.0000 C.3     1  UNL1        0.0955
     13 C           2.8138   -0.3629    0.0000 C.3     1  UNL1        0.0427
     14 C           5.2725    3.8235    0.0000 C.ar    1  UNL1       -0.0075
     15 C           2.4592    0.5721    0.0000 C.3     1  UNL1        0.0911
     16 C           3.1478    2.3878    0.0000 C.2     1  UNL1        0.2242
     17 C           4.5332   -2.2653    0.0000 C.2     1  UNL1        0.2492
     18 C           4.5513    4.5162    0.0000 C.ar    1  UNL1       -0.0030
     19 C           6.2331    4.1017    0.0000 C.ar    1  UNL1       -0.0030
     20 C           4.7907    5.4871    0.0000 C.ar    1  UNL1       -0.0003
     21 C           6.4724    5.0726    0.0000 C.ar    1  UNL1       -0.0003
     22 C           5.3993   -2.7653    0.0000 C.2     1  UNL1        0.0579
     23 C           5.7512    5.7653    0.0000 C.ar    1  UNL1       -0.0000
     24 C           5.3993   -3.7653    0.0000 C.2     1  UNL1        0.0047
     25 C           4.5332   -4.2653    0.0000 C.ar    1  UNL1        0.0001
     26 C           4.5332   -5.2653    0.0000 C.ar    1  UNL1        0.0000
     27 C           3.6672   -3.7653    0.0000 C.ar    1  UNL1        0.0000
     28 C           3.6672   -5.7653    0.0000 C.ar    1  UNL1        0.0000
     29 C           2.8012   -4.2653    0.0000 C.ar    1  UNL1        0.0000
     30 C           2.8012   -5.2653    0.0000 C.ar    1  UNL1        0.0000
     31 H           6.3298    2.8519    0.0000 H       1  UNL1        0.1235
     32 H           2.0000    1.7847    0.0000 H       1  UNL1        0.1494
@<TRIPOS>BOND
     1     1    16    2
     2     2    17    2
     3     3     6    1
     4     3     9    1
     5     3    31    1
     6     4    10    1
     7     4    12    1
     8     4    17   am
     9     5    15    1
    10     5    16   am
    11     5    32    1
    12     6    11    1
    13     6    14    1
    14     7     8    1
    15     7     9    1
    16     8    10    1
    17    11    16    1
    18    12    13    1
    19    13    15    1
    20    14    18   ar
    21    14    19   ar
    22    17    22    1
    23    18    20   ar
    24    19    21   ar
    25    20    23   ar
    26    21    23   ar
    27    22    24    2
    28    24    25    1
    29    25    26   ar
    30    25    27   ar
    31    26    28   ar
    32    27    29   ar
    33    28    30   ar
    34    29    30   ar
