@<TRIPOS>MOLECULE
IMPHY016225
 33 32 0 0 0
SMALL
GASTEIGER

@<TRIPOS>ATOM
      1 C           6.0010   -0.0600    0.0000 C.3     1  UNL1       -0.0525
      2 C           5.1350    0.4400    0.0000 C.3     1  UNL1       -0.0470
      3 C           6.8671    0.4400    0.0000 C.3     1  UNL1       -0.0530
      4 C           4.2690   -0.0600    0.0000 C.3     1  UNL1       -0.0257
      5 C           7.7331   -0.0600    0.0000 C.3     1  UNL1       -0.0533
      6 C           8.5991    0.4400    0.0000 C.3     1  UNL1       -0.0559
      7 C           4.2690   -1.0600    0.0000 C.3     1  UNL1       -0.0590
      8 C           3.4030    0.4400    0.0000 C.2     1  UNL1       -0.0854
      9 C           9.4651   -0.0600    0.0000 C.3     1  UNL1       -0.0653
     10 C           2.5369   -0.0600    0.0000 C.2     1  UNL1       -0.0908
     11 C           2.5369   -1.0600    0.0000 C.3     1  UNL1       -0.0468
     12 H           5.6025   -0.5349    0.0000 H       1  UNL1        0.0265
     13 H           6.3996   -0.5349    0.0000 H       1  UNL1        0.0265
     14 H           5.5335    0.9149    0.0000 H       1  UNL1        0.0271
     15 H           4.7365    0.9149    0.0000 H       1  UNL1        0.0271
     16 H           7.2656    0.9149    0.0000 H       1  UNL1        0.0265
     17 H           6.4685    0.9149    0.0000 H       1  UNL1        0.0265
     18 H           4.8059   -0.3700    0.0000 H       1  UNL1        0.0340
     19 H           7.3346   -0.5349    0.0000 H       1  UNL1        0.0265
     20 H           8.1316   -0.5349    0.0000 H       1  UNL1        0.0265
     21 H           8.9976    0.9149    0.0000 H       1  UNL1        0.0263
     22 H           8.2006    0.9149    0.0000 H       1  UNL1        0.0263
     23 H           3.6490   -1.0600    0.0000 H       1  UNL1        0.0235
     24 H           4.2690   -1.6800    0.0000 H       1  UNL1        0.0235
     25 H           4.8890   -1.0600    0.0000 H       1  UNL1        0.0235
     26 H           3.4030    1.0600    0.0000 H       1  UNL1        0.0572
     27 H           9.1551   -0.5969    0.0000 H       1  UNL1        0.0230
     28 H          10.0021   -0.3700    0.0000 H       1  UNL1        0.0230
     29 H           9.7751    0.4769    0.0000 H       1  UNL1        0.0230
     30 H           2.0000    0.2500    0.0000 H       1  UNL1        0.0566
     31 H           1.9169   -1.0600    0.0000 H       1  UNL1        0.0272
     32 H           2.5369   -1.6800    0.0000 H       1  UNL1        0.0272
     33 H           3.1569   -1.0600    0.0000 H       1  UNL1        0.0272
@<TRIPOS>BOND
     1     1     2    1
     2     1     3    1
     3     1    12    1
     4     1    13    1
     5     2     4    1
     6     2    14    1
     7     2    15    1
     8     3     5    1
     9     3    16    1
    10     3    17    1
    11     4     7    1
    12     4     8    1
    13     4    18    1
    14     5     6    1
    15     5    19    1
    16     5    20    1
    17     6     9    1
    18     6    21    1
    19     6    22    1
    20     7    23    1
    21     7    24    1
    22     7    25    1
    23     8    10    2
    24     8    26    1
    25     9    27    1
    26     9    28    1
    27     9    29    1
    28    10    11    1
    29    10    30    1
    30    11    31    1
    31    11    32    1
    32    11    33    1
