@<TRIPOS>MOLECULE
IMPHY009588
 127 135 0 0 0
SMALL
GASTEIGER

@<TRIPOS>ATOM
      1 O          12.4960    4.0000    0.0000 O.3     1  UNL1       -0.3451
      2 O          13.3620    2.5000    0.0000 O.3     1  UNL1       -0.3461
      3 O          14.2280    5.0000    0.0000 O.3     1  UNL1       -0.3841
      4 O          15.9601    4.0000    0.0000 O.3     1  UNL1       -0.3864
      5 O          15.9601    2.0000    0.0000 O.3     1  UNL1       -0.3405
      6 O          15.0941    0.5000    0.0000 O.3     1  UNL1       -0.3460
      7 O          17.6921    1.0000    0.0000 O.3     1  UNL1       -0.3841
      8 O          15.9601   -2.0000    0.0000 O.3     1  UNL1       -0.3405
      9 O          17.6921   -1.0000    0.0000 O.3     1  UNL1       -0.3864
     10 O          14.2280   -2.0000    0.0000 O.3     1  UNL1       -0.3405
     11 O          15.9601   -4.0000    0.0000 O.3     1  UNL1       -0.3841
     12 O          14.2280   -5.0000    0.0000 O.3     1  UNL1       -0.3864
     13 O          12.4960   -4.0000    0.0000 O.3     1  UNL1       -0.3865
     14 O          11.6300   -2.5000    0.0000 O.3     1  UNL1       -0.3924
     15 N           4.6448    1.1104    0.0000 N.3     1  UNL1       -0.2956
     16 C           7.1147    0.9269    0.0000 C.3     1  UNL1       -0.0244
     17 C           6.1697    0.6185    0.0000 C.3     1  UNL1       -0.0157
     18 C           7.1108    1.9269    0.0000 C.3     1  UNL1       -0.0305
     19 C           5.5830    1.4210    0.0000 C.3     1  UNL1        0.0146
     20 C           7.9749    2.4302    0.0000 C.3     1  UNL1       -0.0306
     21 C           6.1635    2.2280    0.0000 C.3     1  UNL1       -0.0334
     22 C           5.5891   -0.1812    0.0000 C.3     1  UNL1       -0.0235
     23 C           8.8429    1.9336    0.0000 C.3     1  UNL1       -0.0285
     24 C           7.9826    0.4302    0.0000 C.3     1  UNL1       -0.0468
     25 C           4.6487    0.1222    0.0000 C.3     1  UNL1        0.0136
     26 C           8.8467    0.9336    0.0000 C.3     1  UNL1       -0.0486
     27 C           9.7509    2.4439    0.0000 C.3     1  UNL1       -0.0078
     28 C           7.1186   -0.0731    0.0000 C.3     1  UNL1       -0.0590
     29 C           7.9549    3.4717    0.0000 C.3     1  UNL1       -0.0311
     30 C           3.7673   -0.4095    0.0000 C.3     1  UNL1       -0.0368
     31 C           3.7594    1.6353    0.0000 C.3     1  UNL1        0.0020
     32 C           5.8994   -1.1318    0.0000 C.3     1  UNL1       -0.0607
     33 C           9.7549    3.4856    0.0000 C.2     1  UNL1       -0.0648
     34 C           2.8660    1.1241    0.0000 C.3     1  UNL1       -0.0310
     35 C          10.6799    1.8834    0.0000 C.3     1  UNL1       -0.0413
     36 C           2.8700    0.0948    0.0000 C.3     1  UNL1       -0.0479
     37 C           8.8509    4.0029    0.0000 C.2     1  UNL1       -0.0839
     38 C           9.7471    1.4439    0.0000 C.3     1  UNL1       -0.0556
     39 C          10.6882    4.0389    0.0000 C.3     1  UNL1       -0.0047
     40 C          11.6258    2.4150    0.0000 C.3     1  UNL1       -0.0254
     41 C          11.6300    3.5000    0.0000 C.3     1  UNL1        0.0655
     42 C           2.0000    1.6241    0.0000 C.3     1  UNL1       -0.0613
     43 C          13.3620    3.5000    0.0000 C.3     1  UNL1        0.1878
     44 C          14.2280    4.0000    0.0000 C.3     1  UNL1        0.1341
     45 C          15.0941    3.5000    0.0000 C.3     1  UNL1        0.1141
     46 C          14.2280    2.0000    0.0000 C.3     1  UNL1        0.0796
     47 C          15.0941    2.5000    0.0000 C.3     1  UNL1        0.1134
     48 C          15.9601    1.0000    0.0000 C.3     1  UNL1        0.1880
     49 C          16.8261    0.5000    0.0000 C.3     1  UNL1        0.1341
     50 C          16.8261   -0.5000    0.0000 C.3     1  UNL1        0.1141
     51 C          15.9601   -1.0000    0.0000 C.3     1  UNL1        0.1134
     52 C          15.0941   -0.5000    0.0000 C.3     1  UNL1        0.0796
     53 C          15.0941   -2.5000    0.0000 C.3     1  UNL1        0.1884
     54 C          15.0941   -3.5000    0.0000 C.3     1  UNL1        0.1341
     55 C          14.2280   -4.0000    0.0000 C.3     1  UNL1        0.1141
     56 C          13.3620   -2.5000    0.0000 C.3     1  UNL1        0.1130
     57 C          13.3620   -3.5000    0.0000 C.3     1  UNL1        0.1119
     58 C          12.4960   -2.0000    0.0000 C.3     1  UNL1        0.0730
     59 H           6.5345    0.1172    0.0000 H       1  UNL1        0.0324
     60 H           7.0429    2.5432    0.0000 H       1  UNL1        0.0309
     61 H           5.2160    1.9207    0.0000 H       1  UNL1        0.0466
     62 H           8.5082    2.7464    0.0000 H       1  UNL1        0.0309
     63 H           6.4123    2.7958    0.0000 H       1  UNL1        0.0283
     64 H           5.6249    2.5351    0.0000 H       1  UNL1        0.0283
     65 H           5.1515   -0.6203    0.0000 H       1  UNL1        0.0317
     66 H           9.3786    1.6215    0.0000 H       1  UNL1        0.0312
     67 H           7.5860   -0.0462    0.0000 H       1  UNL1        0.0271
     68 H           8.3830   -0.0432    0.0000 H       1  UNL1        0.0271
     69 H           4.7201   -0.4937    0.0000 H       1  UNL1        0.0465
     70 H           9.0610    0.3518    0.0000 H       1  UNL1        0.0268
     71 H           9.4569    1.0436    0.0000 H       1  UNL1        0.0268
     72 H           6.4986   -0.0755    0.0000 H       1  UNL1        0.0235
     73 H           7.1210   -0.6931    0.0000 H       1  UNL1        0.0235
     74 H           7.7386   -0.0707    0.0000 H       1  UNL1        0.0235
     75 H           7.7346    4.0512    0.0000 H       1  UNL1        0.0310
     76 H           7.3462    3.3538    0.0000 H       1  UNL1        0.0310
     77 H           3.3755   -0.8901    0.0000 H       1  UNL1        0.0280
     78 H           4.1737   -0.8778    0.0000 H       1  UNL1        0.0280
     79 H           4.1622    2.1067    0.0000 H       1  UNL1        0.0429
     80 H           3.3640    2.1128    0.0000 H       1  UNL1        0.0429
     81 H           5.3099   -1.3242    0.0000 H       1  UNL1        0.0233
     82 H           6.0917   -1.7212    0.0000 H       1  UNL1        0.0233
     83 H           6.4888   -0.9395    0.0000 H       1  UNL1        0.0233
     84 H           2.8672    1.7441    0.0000 H       1  UNL1        0.0310
     85 H          10.2735    1.4152    0.0000 H       1  UNL1        0.0274
     86 H          11.0717    1.4029    0.0000 H       1  UNL1        0.0274
     87 H           2.2587    0.1985    0.0000 H       1  UNL1        0.0269
     88 H           2.6632   -0.4897    0.0000 H       1  UNL1        0.0269
     89 H           8.8461    4.6229    0.0000 H       1  UNL1        0.0572
     90 H           9.1271    1.4463    0.0000 H       1  UNL1        0.0238
     91 H           9.7447    0.8239    0.0000 H       1  UNL1        0.0238
     92 H          10.3671    1.4415    0.0000 H       1  UNL1        0.0238
     93 H          11.0837    4.5164    0.0000 H       1  UNL1        0.0335
     94 H          10.2855    4.5102    0.0000 H       1  UNL1        0.0335
     95 H          11.8326    1.8305    0.0000 H       1  UNL1        0.0290
     96 H          12.2370    2.5188    0.0000 H       1  UNL1        0.0290
     97 H          12.1663    3.1890    0.0000 H       1  UNL1        0.0600
     98 H           2.3100    2.1610    0.0000 H       1  UNL1        0.0233
     99 H           1.4631    1.9341    0.0000 H       1  UNL1        0.0233
    100 H           1.6900    1.0872    0.0000 H       1  UNL1        0.0233
    101 H          13.3620    4.1200    0.0000 H       1  UNL1        0.0937
    102 H          14.7650    4.3100    0.0000 H       1  UNL1        0.0671
    103 H          15.6310    3.1900    0.0000 H       1  UNL1        0.0648
    104 H          13.8295    1.5250    0.0000 H       1  UNL1        0.0587
    105 H          14.6266    1.5250    0.0000 H       1  UNL1        0.0587
    106 H          15.0941    1.8800    0.0000 H       1  UNL1        0.0647
    107 H          13.6911    5.3100    0.0000 H       1  UNL1        0.2101
    108 H          15.9601    4.6200    0.0000 H       1  UNL1        0.2100
    109 H          16.4970    1.3100    0.0000 H       1  UNL1        0.0937
    110 H          17.3630    0.1900    0.0000 H       1  UNL1        0.0671
    111 H          16.8261   -1.1200    0.0000 H       1  UNL1        0.0648
    112 H          15.4231   -1.3100    0.0000 H       1  UNL1        0.0647
    113 H          14.4835   -0.3923    0.0000 H       1  UNL1        0.0587
    114 H          14.8820   -1.0826    0.0000 H       1  UNL1        0.0587
    115 H          17.6921    1.6200    0.0000 H       1  UNL1        0.2101
    116 H          18.2291   -0.6900    0.0000 H       1  UNL1        0.2100
    117 H          15.6310   -2.8100    0.0000 H       1  UNL1        0.0938
    118 H          15.0941   -4.1200    0.0000 H       1  UNL1        0.0671
    119 H          14.7650   -4.3100    0.0000 H       1  UNL1        0.0648
    120 H          13.3620   -1.8800    0.0000 H       1  UNL1        0.0647
    121 H          13.3620   -4.1200    0.0000 H       1  UNL1        0.0647
    122 H          12.8945   -1.5250    0.0000 H       1  UNL1        0.0584
    123 H          12.0975   -1.5250    0.0000 H       1  UNL1        0.0584
    124 H          16.4970   -3.6900    0.0000 H       1  UNL1        0.2101
    125 H          14.7650   -5.3100    0.0000 H       1  UNL1        0.2100
    126 H          12.4960   -4.6200    0.0000 H       1  UNL1        0.2100
    127 H          11.0930   -2.1900    0.0000 H       1  UNL1        0.2095
@<TRIPOS>BOND
     1     1    41    1
     2     1    43    1
     3     2    43    1
     4     2    46    1
     5     3    44    1
     6     3   107    1
     7     4    45    1
     8     4   108    1
     9     5    47    1
    10     5    48    1
    11     6    48    1
    12     6    52    1
    13     7    49    1
    14     7   115    1
    15     8    51    1
    16     8    53    1
    17     9    50    1
    18     9   116    1
    19    10    53    1
    20    10    56    1
    21    11    54    1
    22    11   124    1
    23    12    55    1
    24    12   125    1
    25    13    57    1
    26    13   126    1
    27    14    58    1
    28    14   127    1
    29    15    19    1
    30    15    25    1
    31    15    31    1
    32    16    17    1
    33    16    18    1
    34    16    24    1
    35    16    28    1
    36    17    19    1
    37    17    22    1
    38    17    59    1
    39    18    20    1
    40    18    21    1
    41    18    60    1
    42    19    21    1
    43    19    61    1
    44    20    23    1
    45    20    29    1
    46    20    62    1
    47    21    63    1
    48    21    64    1
    49    22    25    1
    50    22    32    1
    51    22    65    1
    52    23    26    1
    53    23    27    1
    54    23    66    1
    55    24    26    1
    56    24    67    1
    57    24    68    1
    58    25    30    1
    59    25    69    1
    60    26    70    1
    61    26    71    1
    62    27    33    1
    63    27    35    1
    64    27    38    1
    65    28    72    1
    66    28    73    1
    67    28    74    1
    68    29    37    1
    69    29    75    1
    70    29    76    1
    71    30    36    1
    72    30    77    1
    73    30    78    1
    74    31    34    1
    75    31    79    1
    76    31    80    1
    77    32    81    1
    78    32    82    1
    79    32    83    1
    80    33    37    2
    81    33    39    1
    82    34    36    1
    83    34    42    1
    84    34    84    1
    85    35    40    1
    86    35    85    1
    87    35    86    1
    88    36    87    1
    89    36    88    1
    90    37    89    1
    91    38    90    1
    92    38    91    1
    93    38    92    1
    94    39    41    1
    95    39    93    1
    96    39    94    1
    97    40    41    1
    98    40    95    1
    99    40    96    1
   100    41    97    1
   101    42    98    1
   102    42    99    1
   103    42   100    1
   104    43    44    1
   105    43   101    1
   106    44    45    1
   107    44   102    1
   108    45    47    1
   109    45   103    1
   110    46    47    1
   111    46   104    1
   112    46   105    1
   113    47   106    1
   114    48    49    1
   115    48   109    1
   116    49    50    1
   117    49   110    1
   118    50    51    1
   119    50   111    1
   120    51    52    1
   121    51   112    1
   122    52   113    1
   123    52   114    1
   124    53    54    1
   125    53   117    1
   126    54    55    1
   127    54   118    1
   128    55    57    1
   129    55   119    1
   130    56    57    1
   131    56    58    1
   132    56   120    1
   133    57   121    1
   134    58   122    1
   135    58   123    1
