@<TRIPOS>MOLECULE
IMPHY008928
 49 52 0 0 0
SMALL
GASTEIGER

@<TRIPOS>ATOM
      1 O           4.5789   -3.6738    0.0000 O.3     1  UNL1       -0.4523
      2 O           3.1336   -4.5232    0.0000 O.3     1  UNL1       -0.4526
      3 O           3.7777    4.1259    0.0000 O.3     1  UNL1       -0.4914
      4 O           2.0578    0.0567    0.0000 O.2     1  UNL1       -0.2832
      5 O           2.0038    3.1018    0.0000 O.3     1  UNL1       -0.4914
      6 O           3.7898   -0.9433    0.0000 O.2     1  UNL1       -0.2832
      7 N           4.6559   -0.4433    0.0000 N.3     1  UNL1       -0.3007
      8 C           5.5219    0.0567    0.0000 C.3     1  UNL1        0.0029
      9 C           4.6559   -1.4433    0.0000 C.3     1  UNL1        0.0280
     10 C           5.5219    1.0567    0.0000 C.3     1  UNL1       -0.0141
     11 C           3.7898   -1.9433    0.0000 C.ar    1  UNL1        0.0229
     12 C           4.6559    1.5567    0.0000 C.ar    1  UNL1       -0.0316
     13 C           2.9238   -1.4433    0.0000 C.ar    1  UNL1        0.0337
     14 C           3.8059   -2.9848    0.0000 C.ar    1  UNL1        0.1713
     15 C           3.7898    1.0567    0.0000 C.ar    1  UNL1        0.0324
     16 C           4.6559    0.5567    0.0000 C.3     1  UNL1       -0.0124
     17 C           2.9078   -3.5126    0.0000 C.ar    1  UNL1        0.1666
     18 C           2.9238   -0.4433    0.0000 C.2     1  UNL1        0.2333
     19 C           2.0138   -1.9502    0.0000 C.ar    1  UNL1       -0.0468
     20 C           3.7898    0.0567    0.0000 C.2     1  UNL1        0.2333
     21 C           4.6719    2.5982    0.0000 C.ar    1  UNL1       -0.0124
     22 C           2.0058   -2.9918    0.0000 C.ar    1  UNL1       -0.0154
     23 C           2.8798    1.5635    0.0000 C.ar    1  UNL1       -0.0051
     24 C           3.7739    3.1259    0.0000 C.ar    1  UNL1        0.1618
     25 C           2.8718    2.6051    0.0000 C.ar    1  UNL1        0.1622
     26 C           4.1642   -4.6226    0.0000 C.3     1  UNL1        0.2332
     27 C           4.6457    4.6226    0.0000 C.3     1  UNL1        0.0790
     28 C           2.0000    4.1018    0.0000 C.3     1  UNL1        0.0790
     29 H           5.7339   -0.5260    0.0000 H       1  UNL1        0.0430
     30 H           6.1325    0.1643    0.0000 H       1  UNL1        0.0430
     31 H           4.8679   -2.0260    0.0000 H       1  UNL1        0.0477
     32 H           5.2664   -1.3357    0.0000 H       1  UNL1        0.0477
     33 H           6.1325    0.9490    0.0000 H       1  UNL1        0.0326
     34 H           5.7339    1.6393    0.0000 H       1  UNL1        0.0326
     35 H           5.2759    0.5567    0.0000 H       1  UNL1        0.0391
     36 H           4.6559    1.1767    0.0000 H       1  UNL1        0.0391
     37 H           4.0359    0.5567    0.0000 H       1  UNL1        0.0391
     38 H           1.4805   -1.6340    0.0000 H       1  UNL1        0.0626
     39 H           5.2124    2.9019    0.0000 H       1  UNL1        0.0658
     40 H           1.4676   -3.2997    0.0000 H       1  UNL1        0.0655
     41 H           2.3465    1.2473    0.0000 H       1  UNL1        0.0662
     42 H           4.0402   -5.2300    0.0000 H       1  UNL1        0.1166
     43 H           4.7553   -4.8098    0.0000 H       1  UNL1        0.1166
     44 H           4.9536    4.0844    0.0000 H       1  UNL1        0.0660
     45 H           5.1838    4.9305    0.0000 H       1  UNL1        0.0660
     46 H           4.3378    5.1607    0.0000 H       1  UNL1        0.0660
     47 H           2.6200    4.1041    0.0000 H       1  UNL1        0.0660
     48 H           1.9976    4.7218    0.0000 H       1  UNL1        0.0660
     49 H           1.3800    4.0994    0.0000 H       1  UNL1        0.0660
@<TRIPOS>BOND
     1     1    14    1
     2     1    26    1
     3     2    17    1
     4     2    26    1
     5     3    24    1
     6     3    27    1
     7     4    18    2
     8     5    25    1
     9     5    28    1
    10     6    20    2
    11     7     8    1
    12     7     9    1
    13     7    16    1
    14     8    10    1
    15     8    29    1
    16     8    30    1
    17     9    11    1
    18     9    31    1
    19     9    32    1
    20    10    12    1
    21    10    33    1
    22    10    34    1
    23    11    13   ar
    24    11    14   ar
    25    12    15   ar
    26    12    21   ar
    27    13    18    1
    28    13    19   ar
    29    14    17   ar
    30    15    20    1
    31    15    23   ar
    32    16    35    1
    33    16    36    1
    34    16    37    1
    35    17    22   ar
    36    18    20    1
    37    19    22   ar
    38    19    38    1
    39    21    24   ar
    40    21    39    1
    41    22    40    1
    42    23    25   ar
    43    23    41    1
    44    24    25   ar
    45    26    42    1
    46    26    43    1
    47    27    44    1
    48    27    45    1
    49    27    46    1
    50    28    47    1
    51    28    48    1
    52    28    49    1
