@<TRIPOS>MOLECULE
IMPHY003209
 48 51 0 0 0
SMALL
GASTEIGER

@<TRIPOS>ATOM
      1 O           8.9942   -2.2312    0.0000 O.2     1  UNL1       -0.4620
      2 O          13.4045   -0.5360    0.0000 O.3     1  UNL1       -0.4526
      3 O          13.4045    1.0735    0.0000 O.3     1  UNL1       -0.4525
      4 O           9.8602    1.2688    0.0000 O.3     1  UNL1       -0.4944
      5 O           5.4641   -2.2554    0.0000 O.3     1  UNL1       -0.4878
      6 O           8.9942    0.7688    0.0000 O.2     1  UNL1       -0.2864
      7 C          10.7263   -0.2312    0.0000 C.ar    1  UNL1        0.0341
      8 C           9.8602   -0.7312    0.0000 C.ar    1  UNL1        0.0679
      9 C           8.1282   -0.7312    0.0000 C.ar    1  UNL1        0.0648
     10 C          12.4583   -0.2312    0.0000 C.ar    1  UNL1        0.1670
     11 C          10.7263    0.7688    0.0000 C.ar    1  UNL1        0.1317
     12 C          11.5923   -0.7312    0.0000 C.ar    1  UNL1       -0.0047
     13 C           8.9942   -0.2312    0.0000 C.ar    1  UNL1        0.2003
     14 C          12.4583    0.7688    0.0000 C.ar    1  UNL1        0.1697
     15 C           8.1282   -1.7312    0.0000 C.ar    1  UNL1        0.1419
     16 C          11.5923    1.2688    0.0000 C.ar    1  UNL1        0.0262
     17 C           9.8602   -1.7312    0.0000 C.ar    1  UNL1        0.1040
     18 C           7.2342   -0.1966    0.0000 C.ar    1  UNL1       -0.0439
     19 C           7.2342   -2.2659    0.0000 C.ar    1  UNL1        0.0231
     20 C           6.3282   -1.7521    0.0000 C.ar    1  UNL1        0.1245
     21 C          13.9881    0.2688    0.0000 C.3     1  UNL1        0.2332
     22 C           6.3282   -0.7104    0.0000 C.ar    1  UNL1       -0.0190
     23 C           4.5961   -1.7587    0.0000 C.3     1  UNL1        0.1080
     24 C           3.7320   -2.2621    0.0000 C.2     1  UNL1       -0.0484
     25 C           9.8602    2.2688    0.0000 C.3     1  UNL1        0.0788
     26 C           2.8641   -1.7654    0.0000 C.2     1  UNL1       -0.0765
     27 C           2.0000   -2.2688    0.0000 C.3     1  UNL1       -0.0439
     28 C           2.8602   -0.7654    0.0000 C.3     1  UNL1       -0.0439
     29 H          11.5923   -1.3512    0.0000 H       1  UNL1        0.0663
     30 H          11.5923    1.8888    0.0000 H       1  UNL1        0.0692
     31 H          10.3972   -2.0412    0.0000 H       1  UNL1        0.1037
     32 H           7.2414    0.4234    0.0000 H       1  UNL1        0.0627
     33 H           7.2414   -2.8859    0.0000 H       1  UNL1        0.0691
     34 H          14.4490   -0.1460    0.0000 H       1  UNL1        0.1166
     35 H          14.4490    0.6835    0.0000 H       1  UNL1        0.1166
     36 H           5.7924   -0.3984    0.0000 H       1  UNL1        0.0654
     37 H           4.9928   -1.2823    0.0000 H       1  UNL1        0.0742
     38 H           4.1958   -1.2853    0.0000 H       1  UNL1        0.0742
     39 H           3.7344   -2.8821    0.0000 H       1  UNL1        0.0605
     40 H          10.4802    2.2688    0.0000 H       1  UNL1        0.0660
     41 H           9.8602    2.8888    0.0000 H       1  UNL1        0.0660
     42 H           9.2402    2.2688    0.0000 H       1  UNL1        0.0660
     43 H           3.4802   -0.7630    0.0000 H       1  UNL1        0.0274
     44 H           2.8578   -0.1454    0.0000 H       1  UNL1        0.0274
     45 H           2.2402   -0.7678    0.0000 H       1  UNL1        0.0274
     46 H           1.6879   -1.7330    0.0000 H       1  UNL1        0.0274
     47 H           1.4643   -2.5808    0.0000 H       1  UNL1        0.0274
     48 H           2.3121   -2.8045    0.0000 H       1  UNL1        0.0274
@<TRIPOS>BOND
     1     1    15   ar
     2     1    17   ar
     3     2    10    1
     4     2    21    1
     5     3    14    1
     6     3    21    1
     7     4    11    1
     8     4    25    1
     9     5    20    1
    10     5    23    1
    11     6    13    2
    12     7     8    1
    13     7    11   ar
    14     7    12   ar
    15     8    13   ar
    16     8    17   ar
    17     9    13   ar
    18     9    15   ar
    19     9    18   ar
    20    10    12   ar
    21    10    14   ar
    22    11    16   ar
    23    12    29    1
    24    14    16   ar
    25    15    19   ar
    26    16    30    1
    27    17    31    1
    28    18    22   ar
    29    18    32    1
    30    19    20   ar
    31    19    33    1
    32    20    22   ar
    33    21    34    1
    34    21    35    1
    35    22    36    1
    36    23    24    1
    37    23    37    1
    38    23    38    1
    39    24    26    2
    40    24    39    1
    41    25    40    1
    42    25    41    1
    43    25    42    1
    44    26    27    1
    45    26    28    1
    46    27    46    1
    47    27    47    1
    48    27    48    1
    49    28    43    1
    50    28    44    1
    51    28    45    1
