@<TRIPOS>MOLECULE
IMPHY011958
 36 38 0 0 0
SMALL
GASTEIGER

@<TRIPOS>ATOM
      1 O           3.7230   -0.4117    0.0000 O.3     1  UNL1       -0.4599
      2 O           2.0000    0.0205    0.0000 O.2     1  UNL1       -0.2505
      3 O           8.0559   -0.4918    0.0000 O.2     1  UNL1       -0.2876
      4 C           4.3551    1.0709    0.0000 C.3     1  UNL1        0.0100
      5 C           4.5777    0.0960    0.0000 C.3     1  UNL1        0.1171
      6 C           5.4786   -0.3379    0.0000 C.3     1  UNL1        0.0462
      7 C           3.3648    1.1574    0.0000 C.3     1  UNL1        0.0598
      8 C           4.9786    1.8527    0.0000 C.3     1  UNL1       -0.0424
      9 C           6.3796    0.0960    0.0000 C.2     1  UNL1        0.0088
     10 C           5.9786    1.8527    0.0000 C.3     1  UNL1       -0.0309
     11 C           6.6021    1.0709    0.0000 C.2     1  UNL1       -0.0651
     12 C           5.6146   -1.3227    0.0000 C.2     1  UNL1       -0.0580
     13 C           2.9749    0.2430    0.0000 C.2     1  UNL1        0.3106
     14 C           2.8504    2.0150    0.0000 C.3     1  UNL1       -0.0519
     15 C           7.0647   -0.6243    0.0000 C.2     1  UNL1        0.1827
     16 C           6.5929   -1.4993    0.0000 C.2     1  UNL1       -0.0150
     17 C           7.5770    1.2934    0.0000 C.3     1  UNL1       -0.0431
     18 C           4.8930   -2.0150    0.0000 C.3     1  UNL1       -0.0427
     19 H           4.0200    1.8520    0.0000 H       1  UNL1        0.0345
     20 H           4.6147   -0.7532    0.0000 H       1  UNL1        0.0746
     21 H           4.7916   -0.8384    0.0000 H       1  UNL1        0.0431
     22 H           3.6936    1.6831    0.0000 H       1  UNL1        0.0415
     23 H           5.1166    2.4572    0.0000 H       1  UNL1        0.0272
     24 H           4.4200    2.1217    0.0000 H       1  UNL1        0.0272
     25 H           6.5372    2.1217    0.0000 H       1  UNL1        0.0310
     26 H           5.8407    2.4572    0.0000 H       1  UNL1        0.0310
     27 H           3.3821    2.3339    0.0000 H       1  UNL1        0.0238
     28 H           2.5315    2.5467    0.0000 H       1  UNL1        0.0238
     29 H           2.3188    1.6961    0.0000 H       1  UNL1        0.0238
     30 H           6.8619   -2.0579    0.0000 H       1  UNL1        0.0655
     31 H           7.7150    0.6889    0.0000 H       1  UNL1        0.0275
     32 H           8.1815    1.4314    0.0000 H       1  UNL1        0.0275
     33 H           7.4391    1.8979    0.0000 H       1  UNL1        0.0275
     34 H           4.4638   -1.5676    0.0000 H       1  UNL1        0.0275
     35 H           4.4456   -2.4442    0.0000 H       1  UNL1        0.0275
     36 H           5.3223   -2.4624    0.0000 H       1  UNL1        0.0275
@<TRIPOS>BOND
     1     1     5    1
     2     1    13    1
     3     2    13    2
     4     3    15    2
     5     4     5    1
     6     4     7    1
     7     4     8    1
     8     4    19    1
     9     5     6    1
    10     5    20    1
    11     6     9    1
    12     6    12    1
    13     6    21    1
    14     7    13    1
    15     7    14    1
    16     7    22    1
    17     8    10    1
    18     8    23    1
    19     8    24    1
    20     9    11    2
    21     9    15    1
    22    10    11    1
    23    10    25    1
    24    10    26    1
    25    11    17    1
    26    12    16    2
    27    12    18    1
    28    14    27    1
    29    14    28    1
    30    14    29    1
    31    15    16    1
    32    16    30    1
    33    17    31    1
    34    17    32    1
    35    17    33    1
    36    18    34    1
    37    18    35    1
    38    18    36    1
