@<TRIPOS>MOLECULE
IMPHY014059
 39 43 0 0 0
SMALL
GASTEIGER

@<TRIPOS>ATOM
      1 O           8.6480    1.6679    0.0000 O.2     1  UNL1       -0.2699
      2 O           6.2231   -2.3106    0.0000 O.2     1  UNL1       -0.2789
      3 N           6.9654    1.1179    0.0000 N.am    1  UNL1       -0.2728
      4 N           6.6028   -0.6207    0.0000 N.am    1  UNL1       -0.2484
      5 N           4.5124    0.0005    0.0000 N.ar    1  UNL1       -0.3549
      6 C           6.2962    0.3748    0.0000 C.3     1  UNL1        0.1402
      7 C           5.3181    0.5827    0.0000 C.ar    1  UNL1        0.0598
      8 C           5.0091    1.5337    0.0000 C.ar    1  UNL1       -0.0142
      9 C           6.6564    2.0690    0.0000 C.3     1  UNL1        0.0211
     10 C           5.6782    2.2769    0.0000 C.3     1  UNL1       -0.0094
     11 C           4.0150    1.5312    0.0000 C.ar    1  UNL1        0.0033
     12 C           3.7086    0.5855    0.0000 C.ar    1  UNL1        0.0470
     13 C           7.9875    0.9171    0.0000 C.2     1  UNL1        0.2501
     14 C           7.6200   -0.8451    0.0000 C.ar    1  UNL1        0.0503
     15 C           8.3170   -0.0711    0.0000 C.ar    1  UNL1        0.0584
     16 C           3.3334    2.3106    0.0000 C.ar    1  UNL1       -0.0523
     17 C           2.6994    0.3537    0.0000 C.ar    1  UNL1       -0.0378
     18 C           5.9251   -1.3561    0.0000 C.2     1  UNL1        0.2085
     19 C           7.9393   -1.8821    0.0000 C.ar    1  UNL1       -0.0395
     20 C           9.3816   -0.2803    0.0000 C.ar    1  UNL1       -0.0478
     21 C           2.3191    2.1023    0.0000 C.ar    1  UNL1       -0.0611
     22 C           2.0000    1.1172    0.0000 C.ar    1  UNL1       -0.0598
     23 C           8.9988   -2.1158    0.0000 C.ar    1  UNL1       -0.0600
     24 C           9.7248   -1.3095    0.0000 C.ar    1  UNL1       -0.0609
     25 H           5.7226   -0.2525    0.0000 H       1  UNL1        0.0782
     26 H           7.2703    2.1552    0.0000 H       1  UNL1        0.0468
     27 H           6.6780    2.6886    0.0000 H       1  UNL1        0.0468
     28 H           5.9105    2.8517    0.0000 H       1  UNL1        0.0329
     29 H           5.1524    2.6054    0.0000 H       1  UNL1        0.0329
     30 H           4.5113   -0.6195    0.0000 H       1  UNL1        0.1657
     31 H           3.5313    2.8982    0.0000 H       1  UNL1        0.0624
     32 H           2.5152   -0.2383    0.0000 H       1  UNL1        0.0638
     33 H           5.3202   -1.2202    0.0000 H       1  UNL1        0.1257
     34 H           7.5192   -2.3380    0.0000 H       1  UNL1        0.0636
     35 H           9.7911    0.1853    0.0000 H       1  UNL1        0.0626
     36 H           1.9056    2.5643    0.0000 H       1  UNL1        0.0618
     37 H           1.3942    0.9855    0.0000 H       1  UNL1        0.0618
     38 H           9.1881   -2.7062    0.0000 H       1  UNL1        0.0618
     39 H          10.3318   -1.4361    0.0000 H       1  UNL1        0.0618
@<TRIPOS>BOND
     1     1    13    2
     2     2    18    2
     3     3     6    1
     4     3     9    1
     5     3    13   am
     6     4     6    1
     7     4    14    1
     8     4    18   am
     9     5     7   ar
    10     5    12   ar
    11     5    30    1
    12     6     7    1
    13     6    25    1
    14     7     8   ar
    15     8    10    1
    16     8    11   ar
    17     9    10    1
    18     9    26    1
    19     9    27    1
    20    10    28    1
    21    10    29    1
    22    11    12   ar
    23    11    16   ar
    24    12    17   ar
    25    13    15    1
    26    14    15   ar
    27    14    19   ar
    28    15    20   ar
    29    16    21   ar
    30    16    31    1
    31    17    22   ar
    32    17    32    1
    33    18    33    1
    34    19    23   ar
    35    19    34    1
    36    20    24   ar
    37    20    35    1
    38    21    22   ar
    39    21    36    1
    40    22    37    1
    41    23    24   ar
    42    23    38    1
    43    24    39    1
