@<TRIPOS>MOLECULE
IMPHY001035
 26 27 0 0 0
SMALL
GASTEIGER

@<TRIPOS>ATOM
      1 O           5.4804    1.7623    0.0000 O.3     1  UNL1       -0.4933
      2 O           2.0000    0.7277    0.0000 O.2     1  UNL1       -0.2754
      3 N           2.8660   -0.7723    0.0000 N.am    1  UNL1       -0.3084
      4 N           6.3981   -0.7931    0.0000 N.ar    1  UNL1       -0.2593
      5 C           3.7320   -1.2723    0.0000 C.3     1  UNL1        0.0474
      6 C           4.5981   -0.7723    0.0000 C.ar    1  UNL1       -0.0023
      7 C           4.5981    0.2277    0.0000 C.ar    1  UNL1        0.0109
      8 C           3.7320    0.7277    0.0000 C.3     1  UNL1        0.0530
      9 C           2.8660    0.2277    0.0000 C.2     1  UNL1        0.2179
     10 C           3.7320   -2.2723    0.0000 C.3     1  UNL1       -0.0424
     11 C           5.4920    0.7624    0.0000 C.ar    1  UNL1        0.1420
     12 C           5.4920   -1.3070    0.0000 C.ar    1  UNL1        0.0330
     13 C           6.3981    0.2485    0.0000 C.ar    1  UNL1        0.0695
     14 C           6.3406    2.2723    0.0000 C.3     1  UNL1        0.0789
     15 H           3.1951   -1.5823    0.0000 H       1  UNL1        0.0546
     16 H           4.1306    1.2027    0.0000 H       1  UNL1        0.0408
     17 H           3.3335    1.2027    0.0000 H       1  UNL1        0.0408
     18 H           2.3291   -1.0823    0.0000 H       1  UNL1        0.1493
     19 H           3.1120   -2.2723    0.0000 H       1  UNL1        0.0251
     20 H           3.7320   -2.8923    0.0000 H       1  UNL1        0.0251
     21 H           4.3520   -2.2723    0.0000 H       1  UNL1        0.0251
     22 H           5.4848   -1.9269    0.0000 H       1  UNL1        0.0833
     23 H           6.9338    0.5606    0.0000 H       1  UNL1        0.0867
     24 H           6.6568    1.7390    0.0000 H       1  UNL1        0.0660
     25 H           6.8740    2.5885    0.0000 H       1  UNL1        0.0660
     26 H           6.0244    2.8056    0.0000 H       1  UNL1        0.0660
@<TRIPOS>BOND
     1     1    11    1
     2     1    14    1
     3     2     9    2
     4     3     5    1
     5     3     9   am
     6     3    18    1
     7     4    12   ar
     8     4    13   ar
     9     5     6    1
    10     5    10    1
    11     5    15    1
    12     6     7   ar
    13     6    12   ar
    14     7     8    1
    15     7    11   ar
    16     8     9    1
    17     8    16    1
    18     8    17    1
    19    10    19    1
    20    10    20    1
    21    10    21    1
    22    11    13   ar
    23    12    22    1
    24    13    23    1
    25    14    24    1
    26    14    25    1
    27    14    26    1
