@<TRIPOS>MOLECULE
IMPHY000365
 67 72 0 0 0
SMALL
GASTEIGER

@<TRIPOS>ATOM
      1 O           4.1304   -1.5407    0.0000 O.3     1  UNL1       -0.3841
      2 O           3.6891   -0.7026    0.0000 O.3     1  UNL1       -0.3852
      3 O           7.0294    1.8904    0.0000 O.3     1  UNL1       -0.3912
      4 O           3.3125    1.4645    0.0000 O.3     1  UNL1       -0.3910
      5 O           2.9117    2.3483    0.0000 O.3     1  UNL1       -0.3793
      6 O           7.8954   -2.3448    0.0000 O.3     1  UNL1       -0.3824
      7 N           8.2247    0.0613    0.0000 N.3     1  UNL1       -0.2956
      8 C           6.2780    0.4566    0.0000 C.3     1  UNL1        0.0217
      9 C           6.2780   -0.4110    0.0000 C.3     1  UNL1       -0.0196
     10 C           5.5997    0.9975    0.0000 C.3     1  UNL1       -0.0229
     11 C           7.2800    0.3505    0.0000 C.3     1  UNL1        0.0504
     12 C           4.7539   -0.7589    0.0000 C.3     1  UNL1        0.1113
     13 C           4.7539    0.8044    0.0000 C.3     1  UNL1        0.0205
     14 C           4.3774    0.0228    0.0000 C.3     1  UNL1        0.1038
     15 C           5.5997   -0.9519    0.0000 C.3     1  UNL1       -0.0157
     16 C           7.0294   -0.8448    0.0000 C.3     1  UNL1        0.0105
     17 C           7.0294    0.8904    0.0000 C.3     1  UNL1        0.0629
     18 C           5.6775    1.8616    0.0000 C.3     1  UNL1       -0.0416
     19 C           4.8797    2.2026    0.0000 C.3     1  UNL1        0.0120
     20 C           4.3089    1.5492    0.0000 C.3     1  UNL1        0.0662
     21 C           3.7326    0.2927    0.0000 C.3     1  UNL1        0.0058
     22 C           8.2247   -0.6906    0.0000 C.3     1  UNL1        0.0073
     23 C           7.7807   -0.4110    0.0000 C.3     1  UNL1       -0.0415
     24 C           3.7326    1.7772    0.0000 C.3     1  UNL1        0.0662
     25 C           7.7807    0.4566    0.0000 C.3     1  UNL1       -0.0256
     26 C           7.0293   -1.8448    0.0000 C.3     1  UNL1        0.0544
     27 C           9.0286    0.6560    0.0000 C.3     1  UNL1       -0.0035
     28 C           9.9456    0.2571    0.0000 C.3     1  UNL1       -0.0523
     29 C           2.9958    3.3448    0.0000 C.3     1  UNL1        0.0368
     30 C           7.8954   -3.3448    0.0000 C.3     1  UNL1        0.0365
     31 H           6.3415   -1.2586    0.0000 H       1  UNL1        0.0315
     32 H           6.3813    1.3316    0.0000 H       1  UNL1        0.0312
     33 H           7.7245    1.0750    0.0000 H       1  UNL1        0.0498
     34 H           3.9047    0.7663    0.0000 H       1  UNL1        0.0357
     35 H           6.0844   -1.3385    0.0000 H       1  UNL1        0.0297
     36 H           5.3307   -1.5105    0.0000 H       1  UNL1        0.0297
     37 H           6.4924    1.2004    0.0000 H       1  UNL1        0.0599
     38 H           5.8602    2.4540    0.0000 H       1  UNL1        0.0272
     39 H           6.2858    1.7418    0.0000 H       1  UNL1        0.0272
     40 H           4.9005    3.0523    0.0000 H       1  UNL1        0.0351
     41 H           4.0288    2.1023    0.0000 H       1  UNL1        0.0600
     42 H           3.5706   -0.3058    0.0000 H       1  UNL1        0.0319
     43 H           3.1180    0.3744    0.0000 H       1  UNL1        0.0319
     44 H           8.8441   -0.6640    0.0000 H       1  UNL1        0.0433
     45 H           8.2776   -1.3083    0.0000 H       1  UNL1        0.0433
     46 H           8.3913   -0.3033    0.0000 H       1  UNL1        0.0273
     47 H           7.9927   -0.9936    0.0000 H       1  UNL1        0.0273
     48 H           3.8107    2.3923    0.0000 H       1  UNL1        0.0600
     49 H           7.9927    1.0392    0.0000 H       1  UNL1        0.0290
     50 H           8.3913    0.3489    0.0000 H       1  UNL1        0.0290
     51 H           6.8173   -2.4274    0.0000 H       1  UNL1        0.0566
     52 H           6.4188   -1.7371    0.0000 H       1  UNL1        0.0566
     53 H           4.3569   -2.1178    0.0000 H       1  UNL1        0.2104
     54 H           3.0862   -0.5579    0.0000 H       1  UNL1        0.2103
     55 H           8.5790    1.0829    0.0000 H       1  UNL1        0.0424
     56 H           9.3709    1.1730    0.0000 H       1  UNL1        0.0424
     57 H           7.5663    2.2004    0.0000 H       1  UNL1        0.2098
     58 H           3.0491    0.9033    0.0000 H       1  UNL1        0.2098
     59 H          10.1930    0.8256    0.0000 H       1  UNL1        0.0242
     60 H          10.5142    0.0098    0.0000 H       1  UNL1        0.0242
     61 H           9.6983   -0.3114    0.0000 H       1  UNL1        0.0242
     62 H           2.3780    3.3970    0.0000 H       1  UNL1        0.0524
     63 H           3.0480    3.9626    0.0000 H       1  UNL1        0.0524
     64 H           3.6136    3.2926    0.0000 H       1  UNL1        0.0524
     65 H           8.5154   -3.3448    0.0000 H       1  UNL1        0.0523
     66 H           7.8954   -3.9648    0.0000 H       1  UNL1        0.0523
     67 H           7.2754   -3.3448    0.0000 H       1  UNL1        0.0523
@<TRIPOS>BOND
     1    12     1    1
     2     1    53    1
     3    14     2    1
     4     2    54    1
     5    17     3    1
     6     3    57    1
     7    20     4    1
     8     4    58    1
     9    24     5    1
    10     5    29    1
    11     6    26    1
    12     6    30    1
    13     7    11    1
    14     7    22    1
    15     7    27    1
    16     8     9    1
    17     8    10    1
    18     8    11    1
    19     8    17    1
    20     9    15    1
    21     9    16    1
    22     9    31    1
    23    10    13    1
    24    10    18    1
    25    10    32    1
    26    11    12    1
    27    11    33    1
    28    12    14    1
    29    12    15    1
    30    13    14    1
    31    13    20    1
    32    13    34    1
    33    14    21    1
    34    15    35    1
    35    15    36    1
    36    16    22    1
    37    16    23    1
    38    16    26    1
    39    17    25    1
    40    17    37    1
    41    18    19    1
    42    18    38    1
    43    18    39    1
    44    19    20    1
    45    19    24    1
    46    19    40    1
    47    20    41    1
    48    21    24    1
    49    21    42    1
    50    21    43    1
    51    22    44    1
    52    22    45    1
    53    23    25    1
    54    23    46    1
    55    23    47    1
    56    24    48    1
    57    25    49    1
    58    25    50    1
    59    26    51    1
    60    26    52    1
    61    27    28    1
    62    27    55    1
    63    27    56    1
    64    28    59    1
    65    28    60    1
    66    28    61    1
    67    29    62    1
    68    29    63    1
    69    29    64    1
    70    30    65    1
    71    30    66    1
    72    30    67    1
