@<TRIPOS>MOLECULE
IMPHY002053
 21 20 0 0 0
SMALL
GASTEIGER

@<TRIPOS>ATOM
      1 O           5.1350   -1.2500    0.0000 O.3     1  UNL1       -0.3860
      2 O           4.2690    1.2500    0.0000 O.3     1  UNL1       -0.3869
      3 O           6.0010    1.2500    0.0000 O.3     1  UNL1       -0.3783
      4 O           2.5369    0.2500    0.0000 O.3     1  UNL1       -0.3924
      5 O           7.7331    0.2500    0.0000 O.3     1  UNL1       -0.4788
      6 O           6.8671   -1.2500    0.0000 O.2     1  UNL1       -0.2480
      7 C           5.1350   -0.2500    0.0000 C.3     1  UNL1        0.1193
      8 C           4.2690    0.2500    0.0000 C.3     1  UNL1        0.1070
      9 C           6.0010    0.2500    0.0000 C.3     1  UNL1        0.1798
     10 C           3.4030   -0.2500    0.0000 C.3     1  UNL1        0.0727
     11 C           6.8671   -0.2500    0.0000 C.2     1  UNL1        0.3363
     12 H           5.6720   -0.5600    0.0000 H       1  UNL1        0.0651
     13 H           4.8059    0.5600    0.0000 H       1  UNL1        0.0643
     14 H           6.5380    0.5600    0.0000 H       1  UNL1        0.0738
     15 H           3.0044   -0.7249    0.0000 H       1  UNL1        0.0584
     16 H           3.8015   -0.7249    0.0000 H       1  UNL1        0.0584
     17 H           4.5981   -1.5600    0.0000 H       1  UNL1        0.2100
     18 H           3.7320    1.5600    0.0000 H       1  UNL1        0.2100
     19 H           6.5380    1.5600    0.0000 H       1  UNL1        0.2106
     20 H           2.0000   -0.0600    0.0000 H       1  UNL1        0.2095
     21 H           8.2700   -0.0600    0.0000 H       1  UNL1        0.2951
@<TRIPOS>BOND
     1     7     1    1
     2     1    17    1
     3     8     2    1
     4     2    18    1
     5     9     3    1
     6     3    19    1
     7     4    10    1
     8     4    20    1
     9     5    11    1
    10     5    21    1
    11     6    11    2
    12     7     8    1
    13     7     9    1
    14     7    12    1
    15     8    10    1
    16     8    13    1
    17     9    11    1
    18     9    14    1
    19    10    15    1
    20    10    16    1
