@<TRIPOS>MOLECULE
IMPHY009190
 146 154 0 0 0
SMALL
GASTEIGER

@<TRIPOS>ATOM
      1 O           7.5126    7.7357    0.0000 O.3     1  UNL1       -0.3876
      2 O           4.9241    5.2257    0.0000 O.3     1  UNL1       -0.3911
      3 O           4.9431    9.1667    0.0000 O.3     1  UNL1       -0.3911
      4 O          11.1364    3.6052    0.0000 O.3     1  UNL1       -0.3480
      5 O           2.4576    7.3490    0.0000 O.3     1  UNL1       -0.4571
      6 O          12.0024    2.1052    0.0000 O.3     1  UNL1       -0.3456
      7 O           2.0000    5.6267    0.0000 O.2     1  UNL1       -0.2456
      8 O           9.4043    0.6052    0.0000 O.3     1  UNL1       -0.3890
      9 O          11.1364   -0.3948    0.0000 O.3     1  UNL1       -0.3429
     10 O          12.8684   -0.3948    0.0000 O.3     1  UNL1       -0.3456
     11 O          14.6005   -2.3948    0.0000 O.3     1  UNL1       -0.3429
     12 O          12.8684   -3.3948    0.0000 O.3     1  UNL1       -0.3890
     13 O          13.7345   -3.8948    0.0000 O.3     1  UNL1       -0.3456
     14 O          14.6005   -6.3948    0.0000 O.3     1  UNL1       -0.3392
     15 O          16.3325   -5.3948    0.0000 O.3     1  UNL1       -0.4587
     16 O          12.8684   -6.3948    0.0000 O.3     1  UNL1       -0.3405
     17 O          14.6005   -8.3948    0.0000 O.3     1  UNL1       -0.3841
     18 O          12.8684   -9.3948    0.0000 O.3     1  UNL1       -0.3864
     19 O          11.1364   -8.3948    0.0000 O.3     1  UNL1       -0.3865
     20 O          10.2704   -6.8948    0.0000 O.3     1  UNL1       -0.3924
     21 O          17.1986   -3.8948    0.0000 O.2     1  UNL1       -0.2512
     22 C           6.6485    7.2323    0.0000 C.3     1  UNL1        0.0798
     23 C           7.5164    6.7357    0.0000 C.3     1  UNL1       -0.0080
     24 C           5.7844    6.7290    0.0000 C.3     1  UNL1        0.0319
     25 C           7.5203    5.7357    0.0000 C.3     1  UNL1       -0.0276
     26 C           8.4163    5.2045    0.0000 C.3     1  UNL1       -0.0258
     27 C           5.7882    5.7290    0.0000 C.3     1  UNL1        0.0641
     28 C           9.3203    5.7218    0.0000 C.3     1  UNL1       -0.0330
     29 C           5.0448    7.3932    0.0000 C.3     1  UNL1        0.0202
     30 C           6.6562    5.2323    0.0000 C.3     1  UNL1       -0.0225
     31 C           6.4355    8.2033    0.0000 C.3     1  UNL1        0.0036
     32 C           8.4083    7.2738    0.0000 C.3     1  UNL1       -0.0470
     33 C           5.4464    8.3026    0.0000 C.3     1  UNL1        0.0651
     34 C           9.3163    6.7634    0.0000 C.3     1  UNL1       -0.0493
     35 C           8.3954    4.1197    0.0000 C.3     1  UNL1       -0.0448
     36 C           4.9203    6.2256    0.0000 C.3     1  UNL1       -0.0539
     37 C          10.2662    5.1902    0.0000 C.3     1  UNL1       -0.0232
     38 C           7.5483    4.7078    0.0000 C.3     1  UNL1       -0.0590
     39 C           9.3286    3.5663    0.0000 C.3     1  UNL1       -0.0260
     40 C          10.2704    4.1052    0.0000 C.3     1  UNL1        0.0620
     41 C           4.0671    7.1832    0.0000 C.2     1  UNL1       -0.0197
     42 C           3.3225    7.8508    0.0000 C.3     1  UNL1        0.1148
     43 C           3.6623    6.2688    0.0000 C.2     1  UNL1        0.0253
     44 C           2.6676    6.3712    0.0000 C.2     1  UNL1        0.3323
     45 C          11.1364    2.6052    0.0000 C.3     1  UNL1        0.1624
     46 C          10.2704    2.1052    0.0000 C.3     1  UNL1        0.0270
     47 C          10.2704    1.1052    0.0000 C.3     1  UNL1        0.0884
     48 C          12.0024    1.1052    0.0000 C.3     1  UNL1        0.0875
     49 C          11.1364    0.6052    0.0000 C.3     1  UNL1        0.1134
     50 C          12.8684    0.6052    0.0000 C.3     1  UNL1       -0.0361
     51 C          12.0024   -0.8948    0.0000 C.3     1  UNL1        0.1626
     52 C          12.0024   -1.8948    0.0000 C.3     1  UNL1        0.0270
     53 C          12.8684   -2.3948    0.0000 C.3     1  UNL1        0.0884
     54 C          13.7345   -0.8948    0.0000 C.3     1  UNL1        0.0875
     55 C          13.7345   -1.8948    0.0000 C.3     1  UNL1        0.1134
     56 C          14.6005   -0.3948    0.0000 C.3     1  UNL1       -0.0361
     57 C          14.6005   -3.3948    0.0000 C.3     1  UNL1        0.1636
     58 C          15.4665   -3.8948    0.0000 C.3     1  UNL1        0.0382
     59 C          15.4665   -4.8948    0.0000 C.3     1  UNL1        0.1361
     60 C          14.6005   -5.3948    0.0000 C.3     1  UNL1        0.1245
     61 C          13.7345   -4.8948    0.0000 C.3     1  UNL1        0.0885
     62 C          12.8684   -5.3948    0.0000 C.3     1  UNL1       -0.0360
     63 C          13.7345   -6.8948    0.0000 C.3     1  UNL1        0.1885
     64 C          13.7345   -7.8948    0.0000 C.3     1  UNL1        0.1341
     65 C          12.8684   -8.3948    0.0000 C.3     1  UNL1        0.1141
     66 C          12.0024   -7.8948    0.0000 C.3     1  UNL1        0.1119
     67 C          12.0024   -6.8948    0.0000 C.3     1  UNL1        0.1130
     68 C          17.1986   -4.8948    0.0000 C.2     1  UNL1        0.3043
     69 C          11.1364   -6.3948    0.0000 C.3     1  UNL1        0.0730
     70 C          18.0646   -5.3948    0.0000 C.3     1  UNL1        0.0332
     71 H           7.5066    7.5856    0.0000 H       1  UNL1        0.0331
     72 H           8.2580    6.1578    0.0000 H       1  UNL1        0.0310
     73 H           5.7906    5.1090    0.0000 H       1  UNL1        0.0600
     74 H          10.0532    6.1525    0.0000 H       1  UNL1        0.0307
     75 H           4.6534    7.8741    0.0000 H       1  UNL1        0.0379
     76 H           6.2595    4.7559    0.0000 H       1  UNL1        0.0293
     77 H           7.0565    4.7589    0.0000 H       1  UNL1        0.0293
     78 H           7.0517    8.2718    0.0000 H       1  UNL1        0.0318
     79 H           6.4322    8.8233    0.0000 H       1  UNL1        0.0318
     80 H           8.8001    7.7543    0.0000 H       1  UNL1        0.0269
     81 H           8.0019    7.7420    0.0000 H       1  UNL1        0.0269
     82 H           5.7819    8.8240    0.0000 H       1  UNL1        0.0600
     83 H           9.9276    6.6597    0.0000 H       1  UNL1        0.0268
     84 H           9.5231    7.3479    0.0000 H       1  UNL1        0.0268
     85 H           7.7866    4.2375    0.0000 H       1  UNL1        0.0271
     86 H           8.1751    3.5401    0.0000 H       1  UNL1        0.0271
     87 H           4.6082    6.7614    0.0000 H       1  UNL1        0.0237
     88 H           4.3845    5.9136    0.0000 H       1  UNL1        0.0237
     89 H           5.2324    5.6899    0.0000 H       1  UNL1        0.0237
     90 H          10.8774    5.0865    0.0000 H       1  UNL1        0.0293
     91 H          10.4730    5.7747    0.0000 H       1  UNL1        0.0293
     92 H           7.2404    5.2459    0.0000 H       1  UNL1        0.0235
     93 H           7.0102    4.3999    0.0000 H       1  UNL1        0.0235
     94 H           7.8562    4.1697    0.0000 H       1  UNL1        0.0235
     95 H           8.9259    3.0950    0.0000 H       1  UNL1        0.0290
     96 H           9.7241    3.0888    0.0000 H       1  UNL1        0.0290
     97 H          10.8067    4.4162    0.0000 H       1  UNL1        0.0597
     98 H           7.5102    8.3556    0.0000 H       1  UNL1        0.2102
     99 H           4.9265    4.6057    0.0000 H       1  UNL1        0.2098
    100 H           5.2510    9.7048    0.0000 H       1  UNL1        0.2098
    101 H           3.7824    8.2666    0.0000 H       1  UNL1        0.0746
    102 H           2.9570    8.3516    0.0000 H       1  UNL1        0.0746
    103 H           3.9734    5.7326    0.0000 H       1  UNL1        0.0689
    104 H          10.5995    2.9152    0.0000 H       1  UNL1        0.0910
    105 H          10.0583    2.6878    0.0000 H       1  UNL1        0.0340
    106 H           9.6598    1.9976    0.0000 H       1  UNL1        0.0340
    107 H           9.7334    1.4152    0.0000 H       1  UNL1        0.0622
    108 H          12.5394    1.4152    0.0000 H       1  UNL1        0.0621
    109 H          10.5995    0.2952    0.0000 H       1  UNL1        0.0649
    110 H          12.5584    0.0683    0.0000 H       1  UNL1        0.0255
    111 H          13.4054    0.2952    0.0000 H       1  UNL1        0.0255
    112 H          13.1784    1.1422    0.0000 H       1  UNL1        0.0255
    113 H           8.8674    0.9152    0.0000 H       1  UNL1        0.2099
    114 H          12.0024   -0.2748    0.0000 H       1  UNL1        0.0910
    115 H          11.3918   -1.7871    0.0000 H       1  UNL1        0.0340
    116 H          11.7904   -2.4774    0.0000 H       1  UNL1        0.0340
    117 H          12.3315   -2.7048    0.0000 H       1  UNL1        0.0622
    118 H          13.7345   -0.2748    0.0000 H       1  UNL1        0.0621
    119 H          14.2714   -1.5848    0.0000 H       1  UNL1        0.0649
    120 H          14.9105   -0.9317    0.0000 H       1  UNL1        0.0255
    121 H          15.1374   -0.0848    0.0000 H       1  UNL1        0.0255
    122 H          14.2905    0.1421    0.0000 H       1  UNL1        0.0255
    123 H          12.3315   -3.7048    0.0000 H       1  UNL1        0.2099
    124 H          14.0636   -3.0848    0.0000 H       1  UNL1        0.0911
    125 H          16.0771   -4.0024    0.0000 H       1  UNL1        0.0351
    126 H          15.6786   -3.3122    0.0000 H       1  UNL1        0.0351
    127 H          16.0035   -4.5848    0.0000 H       1  UNL1        0.0763
    128 H          14.0636   -5.7048    0.0000 H       1  UNL1        0.0660
    129 H          13.1975   -4.5848    0.0000 H       1  UNL1        0.0621
    130 H          12.5584   -4.8578    0.0000 H       1  UNL1        0.0255
    131 H          12.3315   -5.7048    0.0000 H       1  UNL1        0.0255
    132 H          13.1784   -5.9317    0.0000 H       1  UNL1        0.0255
    133 H          14.2714   -7.2048    0.0000 H       1  UNL1        0.0938
    134 H          13.7345   -8.5148    0.0000 H       1  UNL1        0.0671
    135 H          13.4054   -8.7048    0.0000 H       1  UNL1        0.0648
    136 H          12.0024   -8.5148    0.0000 H       1  UNL1        0.0647
    137 H          12.0024   -6.2748    0.0000 H       1  UNL1        0.0647
    138 H          11.5349   -5.9198    0.0000 H       1  UNL1        0.0584
    139 H          10.7379   -5.9198    0.0000 H       1  UNL1        0.0584
    140 H          15.1374   -8.0848    0.0000 H       1  UNL1        0.2101
    141 H          13.4054   -9.7048    0.0000 H       1  UNL1        0.2100
    142 H          11.1364   -9.0148    0.0000 H       1  UNL1        0.2100
    143 H          17.7546   -5.9317    0.0000 H       1  UNL1        0.0342
    144 H          18.6015   -5.7048    0.0000 H       1  UNL1        0.0342
    145 H          18.3746   -4.8578    0.0000 H       1  UNL1        0.0342
    146 H           9.7334   -6.5848    0.0000 H       1  UNL1        0.2095
@<TRIPOS>BOND
     1    22     1    1
     2     1    98    1
     3    27     2    1
     4     2    99    1
     5    33     3    1
     6     3   100    1
     7    40     4    1
     8    45     4    1
     9     5    42    1
    10     5    44    1
    11     6    45    1
    12     6    48    1
    13     7    44    2
    14    47     8    1
    15     8   113    1
    16    49     9    1
    17    51     9    1
    18    10    51    1
    19    10    54    1
    20    55    11    1
    21    57    11    1
    22    53    12    1
    23    12   123    1
    24    13    57    1
    25    13    61    1
    26    60    14    1
    27    63    14    1
    28    59    15    1
    29    15    68    1
    30    16    63    1
    31    16    67    1
    32    64    17    1
    33    17   140    1
    34    65    18    1
    35    18   141    1
    36    66    19    1
    37    19   142    1
    38    20    69    1
    39    20   146    1
    40    21    68    2
    41    22    23    1
    42    22    24    1
    43    22    31    1
    44    23    25    1
    45    23    32    1
    46    23    71    1
    47    24    27    1
    48    24    29    1
    49    24    36    1
    50    25    26    1
    51    25    30    1
    52    25    72    1
    53    26    28    1
    54    26    35    1
    55    26    38    1
    56    27    30    1
    57    27    73    1
    58    28    34    1
    59    28    37    1
    60    28    74    1
    61    29    33    1
    62    29    41    1
    63    29    75    1
    64    30    76    1
    65    30    77    1
    66    31    33    1
    67    31    78    1
    68    31    79    1
    69    32    34    1
    70    32    80    1
    71    32    81    1
    72    33    82    1
    73    34    83    1
    74    34    84    1
    75    35    39    1
    76    35    85    1
    77    35    86    1
    78    36    87    1
    79    36    88    1
    80    36    89    1
    81    37    40    1
    82    37    90    1
    83    37    91    1
    84    38    92    1
    85    38    93    1
    86    38    94    1
    87    39    40    1
    88    39    95    1
    89    39    96    1
    90    40    97    1
    91    41    42    1
    92    41    43    2
    93    42   101    1
    94    42   102    1
    95    43    44    1
    96    43   103    1
    97    45    46    1
    98    45   104    1
    99    46    47    1
   100    46   105    1
   101    46   106    1
   102    47    49    1
   103    47   107    1
   104    48    49    1
   105    48    50    1
   106    48   108    1
   107    49   109    1
   108    50   110    1
   109    50   111    1
   110    50   112    1
   111    51    52    1
   112    51   114    1
   113    52    53    1
   114    52   115    1
   115    52   116    1
   116    53    55    1
   117    53   117    1
   118    54    55    1
   119    54    56    1
   120    54   118    1
   121    55   119    1
   122    56   120    1
   123    56   121    1
   124    56   122    1
   125    57    58    1
   126    57   124    1
   127    58    59    1
   128    58   125    1
   129    58   126    1
   130    59    60    1
   131    59   127    1
   132    60    61    1
   133    60   128    1
   134    61    62    1
   135    61   129    1
   136    62   130    1
   137    62   131    1
   138    62   132    1
   139    63    64    1
   140    63   133    1
   141    64    65    1
   142    64   134    1
   143    65    66    1
   144    65   135    1
   145    66    67    1
   146    66   136    1
   147    67    69    1
   148    67   137    1
   149    68    70    1
   150    69   138    1
   151    69   139    1
   152    70   143    1
   153    70   144    1
   154    70   145    1
