@<TRIPOS>MOLECULE
IMPHY003440
 37 38 0 0 0
SMALL
GASTEIGER

@<TRIPOS>ATOM
      1 O           4.2690   -0.9050    0.0000 O.3     1  UNL1       -0.3313
      2 O           4.2690   -3.9050    0.0000 O.3     1  UNL1       -0.3864
      3 O           2.5369   -2.9050    0.0000 O.3     1  UNL1       -0.3865
      4 O           6.0010   -0.9050    0.0000 O.3     1  UNL1       -0.4608
      5 O           6.0010   -2.9050    0.0000 O.3     1  UNL1       -0.3829
      6 O           2.5369    0.0950    0.0000 O.3     1  UNL1       -0.3924
      7 O           6.8671    3.5950    0.0000 O.3     1  UNL1       -0.4771
      8 O           5.1350    3.5950    0.0000 O.2     1  UNL1       -0.2451
      9 C           4.2690   -2.9050    0.0000 C.3     1  UNL1        0.1152
     10 C           3.4030   -2.4050    0.0000 C.3     1  UNL1        0.1120
     11 C           5.1350   -2.4050    0.0000 C.3     1  UNL1        0.1454
     12 C           3.4030   -1.4050    0.0000 C.3     1  UNL1        0.1140
     13 C           5.1350   -1.4050    0.0000 C.3     1  UNL1        0.2308
     14 C           2.5369   -0.9050    0.0000 C.3     1  UNL1        0.0731
     15 C           6.0010    0.0950    0.0000 C.ar    1  UNL1        0.1240
     16 C           6.8671    0.5950    0.0000 C.ar    1  UNL1       -0.0190
     17 C           5.1350    0.5950    0.0000 C.ar    1  UNL1       -0.0190
     18 C           6.8671    1.5950    0.0000 C.ar    1  UNL1       -0.0443
     19 C           5.1350    1.5950    0.0000 C.ar    1  UNL1       -0.0443
     20 C           6.0010    2.0950    0.0000 C.ar    1  UNL1        0.0591
     21 C           6.0010    3.0950    0.0000 C.2     1  UNL1        0.3368
     22 H           4.8059   -3.2150    0.0000 H       1  UNL1        0.0648
     23 H           3.4030   -3.0250    0.0000 H       1  UNL1        0.0647
     24 H           5.6720   -2.0950    0.0000 H       1  UNL1        0.0683
     25 H           3.4030   -0.7850    0.0000 H       1  UNL1        0.0647
     26 H           5.1350   -0.7850    0.0000 H       1  UNL1        0.1084
     27 H           1.9264   -0.7973    0.0000 H       1  UNL1        0.0584
     28 H           2.3249   -1.4876    0.0000 H       1  UNL1        0.0584
     29 H           3.7320   -4.2150    0.0000 H       1  UNL1        0.2100
     30 H           2.0000   -2.5950    0.0000 H       1  UNL1        0.2100
     31 H           6.5380   -2.5950    0.0000 H       1  UNL1        0.2102
     32 H           2.0000    0.4050    0.0000 H       1  UNL1        0.2095
     33 H           7.4040    0.2850    0.0000 H       1  UNL1        0.0654
     34 H           4.5981    0.2850    0.0000 H       1  UNL1        0.0654
     35 H           7.4040    1.9050    0.0000 H       1  UNL1        0.0627
     36 H           4.5981    1.9050    0.0000 H       1  UNL1        0.0627
     37 H           6.8671    4.2150    0.0000 H       1  UNL1        0.2954
@<TRIPOS>BOND
     1     1    12    1
     2     1    13    1
     3     9     2    1
     4     2    29    1
     5    10     3    1
     6     3    30    1
     7    13     4    1
     8     4    15    1
     9    11     5    1
    10     5    31    1
    11     6    14    1
    12     6    32    1
    13     7    21    1
    14     7    37    1
    15     8    21    2
    16     9    10    1
    17     9    11    1
    18     9    22    1
    19    10    12    1
    20    10    23    1
    21    11    13    1
    22    11    24    1
    23    12    14    1
    24    12    25    1
    25    13    26    1
    26    14    27    1
    27    14    28    1
    28    15    16   ar
    29    15    17   ar
    30    16    18   ar
    31    16    33    1
    32    17    19   ar
    33    17    34    1
    34    18    20   ar
    35    18    35    1
    36    19    20   ar
    37    19    36    1
    38    20    21    1
