@<TRIPOS>MOLECULE
IMPHY017268
 24 24 0 0 0
SMALL
GASTEIGER

@<TRIPOS>ATOM
      1 O           3.7320    0.5000    0.0000 O.3     1  UNL1       -0.4599
      2 O           2.8660    2.0000    0.0000 O.2     1  UNL1       -0.2509
      3 C           2.8660   -1.0000    0.0000 C.ar    1  UNL1       -0.0103
      4 C           2.8660    0.0000    0.0000 C.3     1  UNL1        0.1175
      5 C           4.5981    2.0000    0.0000 C.3     1  UNL1        0.0421
      6 C           3.7320   -1.5000    0.0000 C.ar    1  UNL1       -0.0554
      7 C           2.0000   -1.5000    0.0000 C.ar    1  UNL1       -0.0554
      8 C           3.7320    1.5000    0.0000 C.2     1  UNL1        0.3071
      9 C           3.7320   -2.5000    0.0000 C.ar    1  UNL1       -0.0614
     10 C           2.0000   -2.5000    0.0000 C.ar    1  UNL1       -0.0614
     11 C           4.5981    3.0000    0.0000 C.3     1  UNL1       -0.0552
     12 C           2.8660   -3.0000    0.0000 C.ar    1  UNL1       -0.0617
     13 H           2.6540    0.5826    0.0000 H       1  UNL1        0.0749
     14 H           2.2554   -0.1077    0.0000 H       1  UNL1        0.0749
     15 H           4.8101    1.4174    0.0000 H       1  UNL1        0.0375
     16 H           5.2087    2.1077    0.0000 H       1  UNL1        0.0375
     17 H           4.2690   -1.1900    0.0000 H       1  UNL1        0.0621
     18 H           1.4631   -1.1900    0.0000 H       1  UNL1        0.0621
     19 H           4.2690   -2.8100    0.0000 H       1  UNL1        0.0618
     20 H           1.4631   -2.8100    0.0000 H       1  UNL1        0.0618
     21 H           5.2181    3.0000    0.0000 H       1  UNL1        0.0235
     22 H           4.5981    3.6200    0.0000 H       1  UNL1        0.0235
     23 H           3.9781    3.0000    0.0000 H       1  UNL1        0.0235
     24 H           2.8660   -3.6200    0.0000 H       1  UNL1        0.0618
@<TRIPOS>BOND
     1     1     4    1
     2     1     8    1
     3     2     8    2
     4     3     4    1
     5     3     6   ar
     6     3     7   ar
     7     4    13    1
     8     4    14    1
     9     5     8    1
    10     5    11    1
    11     5    15    1
    12     5    16    1
    13     6     9   ar
    14     6    17    1
    15     7    10   ar
    16     7    18    1
    17     9    12   ar
    18     9    19    1
    19    10    12   ar
    20    10    20    1
    21    11    21    1
    22    11    22    1
    23    11    23    1
    24    12    24    1
