@<TRIPOS>MOLECULE
IMPHY013662
 33 35 0 0 0
SMALL
GASTEIGER

@<TRIPOS>ATOM
      1 O           4.6660   -0.7500    0.0000 O.2     1  UNL1       -0.4877
      2 O           4.6660    2.2500    0.0000 O.2     1  UNL1       -0.2965
      3 C           3.8000    0.7500    0.0000 C.3     1  UNL1        0.0746
      4 C           2.9061    1.2847    0.0000 C.3     1  UNL1       -0.0363
      5 C           3.8000   -0.2500    0.0000 C.2     1  UNL1        0.1049
      6 C           2.0000    0.7708    0.0000 C.3     1  UNL1       -0.0485
      7 C           5.5321   -0.2500    0.0000 C.3     1  UNL1        0.1314
      8 C           5.5321    0.7500    0.0000 C.3     1  UNL1        0.0478
      9 C           4.6660    1.2500    0.0000 C.2     1  UNL1        0.1475
     10 C           2.0000   -0.2708    0.0000 C.3     1  UNL1       -0.0313
     11 C           2.9061   -0.7847    0.0000 C.2     1  UNL1       -0.0457
     12 C           6.3981   -0.7500    0.0000 C.ar    1  UNL1       -0.0070
     13 C           6.3981   -1.7500    0.0000 C.ar    1  UNL1       -0.0551
     14 C           7.2641   -0.2500    0.0000 C.ar    1  UNL1       -0.0551
     15 C           7.2641   -2.2500    0.0000 C.ar    1  UNL1       -0.0614
     16 C           8.1301   -0.7500    0.0000 C.ar    1  UNL1       -0.0614
     17 C           8.1301   -1.7500    0.0000 C.ar    1  UNL1       -0.0617
     18 H           3.8048    1.3700    0.0000 H       1  UNL1        0.0457
     19 H           3.3107    1.7544    0.0000 H       1  UNL1        0.0276
     20 H           2.5124    1.7637    0.0000 H       1  UNL1        0.0276
     21 H           1.7909    1.3545    0.0000 H       1  UNL1        0.0269
     22 H           1.3891    0.6647    0.0000 H       1  UNL1        0.0269
     23 H           5.5321   -0.8700    0.0000 H       1  UNL1        0.0788
     24 H           6.1426    0.6423    0.0000 H       1  UNL1        0.0381
     25 H           5.7441    1.3326    0.0000 H       1  UNL1        0.0381
     26 H           1.3891   -0.1647    0.0000 H       1  UNL1        0.0308
     27 H           1.7909   -0.8545    0.0000 H       1  UNL1        0.0308
     28 H           2.9132   -1.4046    0.0000 H       1  UNL1        0.0605
     29 H           5.8612   -2.0600    0.0000 H       1  UNL1        0.0621
     30 H           7.2641    0.3700    0.0000 H       1  UNL1        0.0621
     31 H           7.2641   -2.8700    0.0000 H       1  UNL1        0.0618
     32 H           8.6671   -0.4400    0.0000 H       1  UNL1        0.0618
     33 H           8.6671   -2.0600    0.0000 H       1  UNL1        0.0618
@<TRIPOS>BOND
     1     1     5    1
     2     1     7    1
     3     2     9    2
     4     3     4    1
     5     3     5    1
     6     3     9    1
     7     3    18    1
     8     4     6    1
     9     4    19    1
    10     4    20    1
    11     5    11    2
    12     6    10    1
    13     6    21    1
    14     6    22    1
    15     7     8    1
    16     7    12    1
    17     7    23    1
    18     8     9    1
    19     8    24    1
    20     8    25    1
    21    10    11    1
    22    10    26    1
    23    10    27    1
    24    11    28    1
    25    12    13   ar
    26    12    14   ar
    27    13    15   ar
    28    13    29    1
    29    14    16   ar
    30    14    30    1
    31    15    17   ar
    32    15    31    1
    33    16    17   ar
    34    16    32    1
    35    17    33    1
