@<TRIPOS>MOLECULE
IMPHY007187
 20 19 0 0 0
SMALL
GASTEIGER

@<TRIPOS>ATOM
      1 O           5.1350   -0.2500    0.0000 O.3     1  UNL1       -0.3752
      2 O           7.7331    0.2500    0.0000 O.3     1  UNL1       -0.3807
      3 O           2.5369    0.2500    0.0000 O.3     1  UNL1       -0.3927
      4 C           6.0010    0.2500    0.0000 C.3     1  UNL1        0.0711
      5 C           6.8671   -0.2500    0.0000 C.3     1  UNL1        0.0706
      6 C           4.2690    0.2500    0.0000 C.3     1  UNL1        0.0708
      7 C           3.4030   -0.2500    0.0000 C.3     1  UNL1        0.0676
      8 C           8.5991   -0.2500    0.0000 C.3     1  UNL1        0.0365
      9 H           6.3996    0.7249    0.0000 H       1  UNL1        0.0583
     10 H           5.6025    0.7249    0.0000 H       1  UNL1        0.0583
     11 H           6.4685   -0.7249    0.0000 H       1  UNL1        0.0582
     12 H           7.2656   -0.7249    0.0000 H       1  UNL1        0.0582
     13 H           4.6675    0.7249    0.0000 H       1  UNL1        0.0583
     14 H           3.8705    0.7249    0.0000 H       1  UNL1        0.0583
     15 H           3.0044   -0.7249    0.0000 H       1  UNL1        0.0580
     16 H           3.8015   -0.7249    0.0000 H       1  UNL1        0.0580
     17 H           8.2891   -0.7869    0.0000 H       1  UNL1        0.0524
     18 H           9.1360   -0.5600    0.0000 H       1  UNL1        0.0524
     19 H           8.9091    0.2869    0.0000 H       1  UNL1        0.0524
     20 H           2.0000   -0.0600    0.0000 H       1  UNL1        0.2095
@<TRIPOS>BOND
     1     1     4    1
     2     1     6    1
     3     2     5    1
     4     2     8    1
     5     3     7    1
     6     3    20    1
     7     4     5    1
     8     4     9    1
     9     4    10    1
    10     5    11    1
    11     5    12    1
    12     6     7    1
    13     6    13    1
    14     6    14    1
    15     7    15    1
    16     7    16    1
    17     8    17    1
    18     8    18    1
    19     8    19    1
