@<TRIPOS>MOLECULE
IMPHY000233
 53 57 0 0 0
SMALL
GASTEIGER

@<TRIPOS>ATOM
      1 O           9.7248   -0.8652    0.0000 O.3     1  UNL1       -0.3483
      2 O           9.3042   -2.6237    0.0000 O.3     1  UNL1       -0.3670
      3 O           3.6437   -1.0537    0.0000 O.3     1  UNL1       -0.4515
      4 O           5.3758   -1.0567    0.0000 O.2     1  UNL1       -0.2227
      5 N           6.9654    1.5622    0.0000 N.3     1  UNL1       -0.2933
      6 N           4.5124    0.4448    0.0000 N.ar    1  UNL1       -0.2481
      7 C           7.6200   -0.4008    0.0000 C.3     1  UNL1       -0.0284
      8 C           8.3170    0.3733    0.0000 C.3     1  UNL1        0.0009
      9 C           6.2962    0.8191    0.0000 C.3     1  UNL1        0.0519
     10 C           6.6028   -0.1764    0.0000 C.3     1  UNL1       -0.0284
     11 C           7.9875    1.3614    0.0000 C.3     1  UNL1        0.0050
     12 C           9.3816    0.1641    0.0000 C.3     1  UNL1        0.0631
     13 C           7.9393   -1.4378    0.0000 C.3     1  UNL1        0.0015
     14 C           5.3181    1.0270    0.0000 C.ar    1  UNL1        0.0510
     15 C           6.6564    2.5133    0.0000 C.3     1  UNL1        0.0036
     16 C           8.9988   -1.6715    0.0000 C.3     1  UNL1        0.1567
     17 C           5.0091    1.9781    0.0000 C.ar    1  UNL1       -0.0156
     18 C           5.6782    2.7212    0.0000 C.3     1  UNL1       -0.0125
     19 C          10.0421    0.9149    0.0000 C.3     1  UNL1       -0.0383
     20 C           4.0150    1.9755    0.0000 C.ar    1  UNL1        0.0039
     21 C           3.7086    1.0298    0.0000 C.ar    1  UNL1        0.0601
     22 C           3.3334    2.7550    0.0000 C.ar    1  UNL1       -0.0523
     23 C           4.5106   -0.5552    0.0000 C.2     1  UNL1        0.4199
     24 C           2.6994    0.7980    0.0000 C.ar    1  UNL1       -0.0371
     25 C           2.3191    2.5466    0.0000 C.ar    1  UNL1       -0.0611
     26 C           2.0000    1.5616    0.0000 C.ar    1  UNL1       -0.0598
     27 C           3.6420   -2.0537    0.0000 C.3     1  UNL1        0.0835
     28 H           7.0440   -1.0259    0.0000 H       1  UNL1        0.0307
     29 H           8.8784    1.0115    0.0000 H       1  UNL1        0.0341
     30 H           5.7226    0.1918    0.0000 H       1  UNL1        0.0527
     31 H           5.9878   -0.2548    0.0000 H       1  UNL1        0.0287
     32 H           6.5748   -0.7958    0.0000 H       1  UNL1        0.0287
     33 H           8.6005    1.4540    0.0000 H       1  UNL1        0.0430
     34 H           8.0011    1.9813    0.0000 H       1  UNL1        0.0430
     35 H           9.9893    0.0410    0.0000 H       1  UNL1        0.0597
     36 H           7.3243   -1.5161    0.0000 H       1  UNL1        0.0317
     37 H           7.9113   -2.0571    0.0000 H       1  UNL1        0.0317
     38 H           7.2703    2.5996    0.0000 H       1  UNL1        0.0430
     39 H           6.6780    3.1329    0.0000 H       1  UNL1        0.0430
     40 H           8.5813   -2.1298    0.0000 H       1  UNL1        0.0907
     41 H           5.9105    3.2961    0.0000 H       1  UNL1        0.0326
     42 H           5.1524    3.0498    0.0000 H       1  UNL1        0.0326
     43 H          10.5076    0.5054    0.0000 H       1  UNL1        0.0255
     44 H          10.4516    1.3804    0.0000 H       1  UNL1        0.0255
     45 H           9.5766    1.3244    0.0000 H       1  UNL1        0.0255
     46 H           9.9101   -2.7550    0.0000 H       1  UNL1        0.2125
     47 H           3.5313    3.3426    0.0000 H       1  UNL1        0.0624
     48 H           2.5152    0.2061    0.0000 H       1  UNL1        0.0638
     49 H           1.9056    3.0086    0.0000 H       1  UNL1        0.0618
     50 H           1.3942    1.4298    0.0000 H       1  UNL1        0.0618
     51 H           3.0220   -2.0526    0.0000 H       1  UNL1        0.0661
     52 H           3.6409   -2.6737    0.0000 H       1  UNL1        0.0661
     53 H           4.2620   -2.0548    0.0000 H       1  UNL1        0.0661
@<TRIPOS>BOND
     1     1    12    1
     2     1    16    1
     3    16     2    1
     4     2    46    1
     5     3    23    1
     6     3    27    1
     7     4    23    2
     8     5     9    1
     9     5    11    1
    10     5    15    1
    11     6    14   ar
    12     6    21   ar
    13     6    23   am
    14     7     8    1
    15     7    10    1
    16     7    13    1
    17     7    28    1
    18     8    11    1
    19     8    12    1
    20     8    29    1
    21     9    10    1
    22     9    14    1
    23     9    30    1
    24    10    31    1
    25    10    32    1
    26    11    33    1
    27    11    34    1
    28    12    19    1
    29    12    35    1
    30    13    16    1
    31    13    36    1
    32    13    37    1
    33    14    17   ar
    34    15    18    1
    35    15    38    1
    36    15    39    1
    37    16    40    1
    38    17    18    1
    39    17    20   ar
    40    18    41    1
    41    18    42    1
    42    19    43    1
    43    19    44    1
    44    19    45    1
    45    20    21   ar
    46    20    22   ar
    47    21    24   ar
    48    22    25   ar
    49    22    47    1
    50    24    26   ar
    51    24    48    1
    52    25    26   ar
    53    25    49    1
    54    26    50    1
    55    27    51    1
    56    27    52    1
    57    27    53    1
