@<TRIPOS>MOLECULE
IMPHY010752
 70 74 0 0 0
SMALL
GASTEIGER

@<TRIPOS>ATOM
      1 O          10.9726   -7.6808    0.0000 O.3     1  UNL1       -0.3284
      2 C          12.0888   -8.3240    0.0000 C.3     1  UNL1        0.2707
      3 C          12.0888   -9.5915    0.0000 C.3     1  UNL1        0.2500
      4 C          10.9726  -10.2158    0.0000 C.3     1  UNL1        0.2333
      5 C           9.8753   -9.5915    0.0000 C.3     1  UNL1        0.1874
      6 C           9.8753   -8.3240    0.0000 C.3     1  UNL1        0.1487
      7 O          13.1860   -7.6808    0.0000 O.3     1  UNL1       -0.3219
      8 C          13.1671   -5.1458    0.0000 C.3     1  UNL1        0.2162
      9 C          14.2833   -4.5025    0.0000 C.3     1  UNL1        0.2333
     10 O          15.4373   -5.1079    0.0000 O.3     1  UNL1       -0.4468
     11 C          16.5156   -4.4647    0.0000 C.2     1  UNL1        0.3170
     12 C          17.8021   -5.1647    0.0000 C.3     1  UNL1        0.1096
     13 C          18.9182   -2.6296    0.0000 C.3     1  UNL1        0.0116
     14 C          17.7642   -1.9297    0.0000 C.3     1  UNL1        0.0006
     15 C          17.7642   -0.6432    0.0000 C.3     1  UNL1        0.0000
     16 C          16.6102    0.0000    0.0000 C.3     1  UNL1        0.0000
     17 C          15.4751   -0.6621    0.0000 C.3     1  UNL1        0.0000
     18 C          14.3400   -0.0189    0.0000 C.3     1  UNL1        0.0001
     19 C          13.2049   -0.6811    0.0000 C.3     1  UNL1        0.0025
     20 C          12.0509   -0.0189    0.0000 C.3     1  UNL1        0.0296
     21 C          10.9158   -0.6811    0.0000 C.3     1  UNL1        0.1179
     22 O          10.9347   -2.5350    0.0000 O.3     1  UNL1       -0.3312
     23 C           9.8186   -3.1972    0.0000 C.3     1  UNL1        0.2660
     24 O           8.7024   -2.5350    0.0000 O.3     1  UNL1       -0.3284
     25 C           7.5862   -3.1972    0.0000 C.3     1  UNL1        0.1508
     26 C           7.5862   -4.4836    0.0000 C.3     1  UNL1        0.2117
     27 C           8.7024   -5.1079    0.0000 C.3     1  UNL1        0.2165
     28 C           9.8186   -4.4836    0.0000 C.3     1  UNL1        0.2066
     29 O          10.9347   -5.1079    0.0000 O.3     1  UNL1       -0.3231
     30 C          12.0509   -4.5025    0.0000 C.3     1  UNL1        0.2674
     31 O          12.0509   -3.2161    0.0000 O.3     1  UNL1       -0.3284
     32 C          13.1671   -2.5729    0.0000 C.3     1  UNL1        0.1519
     33 C          14.2833   -3.2161    0.0000 C.3     1  UNL1        0.2212
     34 O          13.1860  -10.2158    0.0000 O.3     1  UNL1       -0.2137
     35 O          10.9726  -11.5023    0.0000 O.3     1  UNL1       -0.4468
     36 C          12.0888  -12.1266    0.0000 C.2     1  UNL1        0.3165
     37 O          13.1671  -11.4834    0.0000 O.2     1  UNL1       -0.2501
     38 O           8.7970  -10.2158    0.0000 O.3     1  UNL1       -0.3247
     39 C           7.6997   -9.5915    0.0000 C.3     1  UNL1        0.2696
     40 O           7.6997   -8.3240    0.0000 O.3     1  UNL1       -0.3273
     41 C           6.5835   -7.6808    0.0000 C.3     1  UNL1        0.1604
     42 C           5.4863   -8.3240    0.0000 C.3     1  UNL1        0.2285
     43 C           5.4863   -9.5915    0.0000 C.3     1  UNL1        0.2293
     44 C           6.5835  -10.2158    0.0000 C.3     1  UNL1        0.2416
     45 C           8.7970   -7.6808    0.0000 C.3     1  UNL1        0.0349
     46 O          16.5156   -3.1972    0.0000 O.2     1  UNL1       -0.2501
     47 C           9.7807   -0.0189    0.0000 C.3     1  UNL1        0.0296
     48 C           8.6456   -0.7000    0.0000 C.3     1  UNL1        0.0025
     49 C           7.5105   -0.0378    0.0000 C.3     1  UNL1        0.0001
     50 C           6.3754   -0.7000    0.0000 C.3     1  UNL1        0.0000
     51 C           5.2214   -0.0568    0.0000 C.3     1  UNL1        0.0000
     52 C           6.4890   -2.5350    0.0000 C.3     1  UNL1        0.0350
     53 O           6.4890   -5.1079    0.0000 O.3     1  UNL1       -0.2177
     54 O           8.7024   -6.3944    0.0000 O.3     1  UNL1       -0.2175
     55 C          13.1671   -1.2864    0.0000 C.3     1  UNL1        0.0350
     56 O          15.3994   -2.5729    0.0000 O.3     1  UNL1       -0.2165
     57 C          12.0888  -13.3941    0.0000 C.3     1  UNL1        0.0991
     58 C          13.1860  -14.0184    0.0000 C.3     1  UNL1        0.0111
     59 C          13.1860  -15.2859    0.0000 C.3     1  UNL1        0.0006
     60 C           6.5835   -6.4133    0.0000 C.3     1  UNL1        0.0361
     61 O           4.3890   -7.6808    0.0000 O.3     1  UNL1       -0.4470
     62 C           3.3107   -8.3240    0.0000 C.2     1  UNL1        0.3165
     63 O           3.3107   -9.5915    0.0000 O.2     1  UNL1       -0.2501
     64 O           4.3890  -10.2158    0.0000 O.3     1  UNL1       -0.2162
     65 O           6.5835  -11.4834    0.0000 O.3     1  UNL1       -0.2148
     66 C          10.9915  -14.0184    0.0000 C.3     1  UNL1        0.0116
     67 C           2.1945   -7.6808    0.0000 C.3     1  UNL1        0.0991
     68 C           1.0973   -8.3240    0.0000 C.3     1  UNL1        0.0111
     69 C           0.0000   -7.6808    0.0000 C.3     1  UNL1        0.0006
     70 C           2.1945   -6.4133    0.0000 C.3     1  UNL1        0.0116
@<TRIPOS>BOND
     1     1     6    1
     2     1     2    1
     3     2     7    1
     4     2     3    1
     5     3     4    1
     6     3    34    1
     7     4     5    1
     8     4    35    1
     9     5     6    1
    10     5    38    1
    11     6    45    1
    12     8     7    1
    13     8     9    1
    14     8    30    1
    15     9    33    1
    16     9    10    1
    17    10    11    1
    18    11    12    1
    19    11    46    2
    20    12    13    1
    21    13    14    1
    22    14    15    1
    23    15    16    1
    24    16    17    1
    25    17    18    1
    26    18    19    1
    27    19    20    1
    28    20    21    1
    29    21    47    1
    30    21    22    1
    31    23    22    1
    32    23    28    1
    33    23    24    1
    34    24    25    1
    35    25    26    1
    36    25    52    1
    37    26    27    1
    38    26    53    1
    39    27    28    1
    40    27    54    1
    41    28    29    1
    42    30    29    1
    43    30    31    1
    44    31    32    1
    45    32    33    1
    46    32    55    1
    47    33    56    1
    48    35    36    1
    49    36    37    2
    50    39    38    1
    51    39    44    1
    52    39    40    1
    53    40    41    1
    54    41    42    1
    55    41    60    1
    56    42    43    1
    57    42    61    1
    58    43    44    1
    59    43    64    1
    60    44    65    1
    61    47    48    1
    62    48    49    1
    63    49    50    1
    64    50    51    1
    65    57    36    1
    66    57    66    1
    67    57    58    1
    68    58    59    1
    69    61    62    1
    70    62    63    2
    71    67    62    1
    72    67    70    1
    73    67    68    1
    74    68    69    1
