@<TRIPOS>MOLECULE
IMPHY015154
 24 25 0 0 0
SMALL
GASTEIGER

@<TRIPOS>ATOM
      1 C           4.5981   -0.0173    0.0000 C.ar    1  UNL1       -0.0147
      2 C           3.7320   -0.5173    0.0000 C.ar    1  UNL1       -0.0398
      3 C           4.5981    0.9827    0.0000 C.ar    1  UNL1       -0.0176
      4 C           2.8660   -0.0173    0.0000 C.ar    1  UNL1       -0.0469
      5 C           3.7320    1.4827    0.0000 C.ar    1  UNL1       -0.0538
      6 C           2.8660    0.9827    0.0000 C.ar    1  UNL1       -0.0580
      7 C           5.4920   -0.5520    0.0000 C.ar    1  UNL1       -0.0538
      8 C           3.7320   -1.5173    0.0000 C.3     1  UNL1       -0.0389
      9 C           5.4920    1.5173    0.0000 C.ar    1  UNL1       -0.0540
     10 C           2.0000   -0.5173    0.0000 C.3     1  UNL1       -0.0394
     11 C           6.3981   -0.0381    0.0000 C.ar    1  UNL1       -0.0612
     12 C           6.3981    1.0035    0.0000 C.ar    1  UNL1       -0.0612
     13 H           3.7320    2.1027    0.0000 H       1  UNL1        0.0624
     14 H           2.3291    1.2927    0.0000 H       1  UNL1        0.0620
     15 H           5.4848   -1.1720    0.0000 H       1  UNL1        0.0624
     16 H           3.1120   -1.5173    0.0000 H       1  UNL1        0.0278
     17 H           3.7320   -2.1373    0.0000 H       1  UNL1        0.0278
     18 H           4.3520   -1.5173    0.0000 H       1  UNL1        0.0278
     19 H           5.4848    2.1373    0.0000 H       1  UNL1        0.0624
     20 H           1.6900    0.0196    0.0000 H       1  UNL1        0.0278
     21 H           1.4631   -0.8273    0.0000 H       1  UNL1        0.0278
     22 H           2.3100   -1.0543    0.0000 H       1  UNL1        0.0278
     23 H           6.9338   -0.3502    0.0000 H       1  UNL1        0.0618
     24 H           6.9338    1.3156    0.0000 H       1  UNL1        0.0618
@<TRIPOS>BOND
     1     1     2   ar
     2     1     3   ar
     3     1     7   ar
     4     2     4   ar
     5     2     8    1
     6     3     5   ar
     7     3     9   ar
     8     4     6   ar
     9     4    10    1
    10     5     6   ar
    11     5    13    1
    12     6    14    1
    13     7    11   ar
    14     7    15    1
    15     8    16    1
    16     8    17    1
    17     8    18    1
    18     9    12   ar
    19     9    19    1
    20    10    20    1
    21    10    21    1
    22    10    22    1
    23    11    12   ar
    24    11    23    1
    25    12    24    1
