@<TRIPOS>MOLECULE
IMPHY016688
 32 32 0 0 0
SMALL
GASTEIGER

@<TRIPOS>ATOM
      1 O           3.7320   -0.5000    0.0000 O.3     1  UNL1       -0.4611
      2 O           2.0000   -0.5000    0.0000 O.2     1  UNL1       -0.2449
      3 N           3.7320   -3.5000    0.0000 N.ar    1  UNL1       -0.2624
      4 C           4.5981    2.0000    0.0000 C.3     1  UNL1       -0.0500
      5 C           5.4641    2.5000    0.0000 C.3     1  UNL1       -0.0532
      6 C           4.5981    1.0000    0.0000 C.3     1  UNL1       -0.0185
      7 C           5.4641    3.5000    0.0000 C.3     1  UNL1       -0.0559
      8 C           3.7320    0.5000    0.0000 C.3     1  UNL1        0.0928
      9 C           6.3301    4.0000    0.0000 C.3     1  UNL1       -0.0653
     10 C           2.8660   -1.0000    0.0000 C.2     1  UNL1        0.3407
     11 C           2.8660   -2.0000    0.0000 C.ar    1  UNL1        0.0770
     12 C           2.0000   -2.5000    0.0000 C.ar    1  UNL1       -0.0449
     13 C           3.7320   -2.5000    0.0000 C.ar    1  UNL1        0.0415
     14 C           2.0000   -3.5000    0.0000 C.ar    1  UNL1       -0.0428
     15 C           2.8660   -4.0000    0.0000 C.ar    1  UNL1        0.0276
     16 H           4.3860    2.5826    0.0000 H       1  UNL1        0.0266
     17 H           3.9875    1.8923    0.0000 H       1  UNL1        0.0266
     18 H           5.6762    1.9174    0.0000 H       1  UNL1        0.0265
     19 H           6.0747    2.6077    0.0000 H       1  UNL1        0.0265
     20 H           4.8101    0.4174    0.0000 H       1  UNL1        0.0298
     21 H           5.2087    1.1077    0.0000 H       1  UNL1        0.0298
     22 H           5.2520    4.0826    0.0000 H       1  UNL1        0.0263
     23 H           4.8535    3.3923    0.0000 H       1  UNL1        0.0263
     24 H           3.5200    1.0826    0.0000 H       1  UNL1        0.0697
     25 H           3.1215    0.3923    0.0000 H       1  UNL1        0.0697
     26 H           6.6401    3.4631    0.0000 H       1  UNL1        0.0230
     27 H           6.8671    4.3100    0.0000 H       1  UNL1        0.0230
     28 H           6.0201    4.5369    0.0000 H       1  UNL1        0.0230
     29 H           1.4631   -2.1900    0.0000 H       1  UNL1        0.0627
     30 H           4.2690   -2.1900    0.0000 H       1  UNL1        0.0838
     31 H           1.4631   -3.8100    0.0000 H       1  UNL1        0.0633
     32 H           2.8660   -4.6200    0.0000 H       1  UNL1        0.0829
@<TRIPOS>BOND
     1     1     8    1
     2     1    10    1
     3     2    10    2
     4     3    13   ar
     5     3    15   ar
     6     4     5    1
     7     4     6    1
     8     4    16    1
     9     4    17    1
    10     5     7    1
    11     5    18    1
    12     5    19    1
    13     6     8    1
    14     6    20    1
    15     6    21    1
    16     7     9    1
    17     7    22    1
    18     7    23    1
    19     8    24    1
    20     8    25    1
    21     9    26    1
    22     9    27    1
    23     9    28    1
    24    10    11    1
    25    11    12   ar
    26    11    13   ar
    27    12    14   ar
    28    12    29    1
    29    13    30    1
    30    14    15   ar
    31    14    31    1
    32    15    32    1
