@<TRIPOS>MOLECULE
IMPHY017604
 43 45 0 0 0
SMALL
GASTEIGER

@<TRIPOS>ATOM
      1 O           4.7408   -1.1322    0.0000 O.3     1  UNL1       -0.3447
      2 O           5.7998   -1.5617    0.0000 O.3     1  UNL1       -0.3640
      3 C           5.1967    0.9416    0.0000 C.3     1  UNL1        0.0275
      4 C           5.7584    0.5147    0.0000 C.3     1  UNL1       -0.0194
      5 C           5.7359   -0.5637    0.0000 C.3     1  UNL1        0.1734
      6 C           4.4778    1.1438    0.0000 C.3     1  UNL1       -0.0368
      7 C           4.1407   -0.5413    0.0000 C.3     1  UNL1        0.0655
      8 C           4.6799    0.1552    0.0000 C.3     1  UNL1       -0.0201
      9 C           3.6914    0.4248    0.0000 C.3     1  UNL1       -0.0116
     10 C           6.6796    0.3575    0.0000 C.3     1  UNL1       -0.0467
     11 C           6.8072   -1.0056    0.0000 C.3     1  UNL1        0.0018
     12 C           7.2637   -0.3166    0.0000 C.3     1  UNL1       -0.0477
     13 C           5.6424    1.8368    0.0000 C.3     1  UNL1       -0.0541
     14 C           6.1565    1.4320    0.0000 C.3     1  UNL1       -0.0588
     15 C           2.7380    0.7265    0.0000 C.3     1  UNL1       -0.0415
     16 C           2.0000    0.0517    0.0000 C.3     1  UNL1       -0.0623
     17 C           2.5226    1.7031    0.0000 C.3     1  UNL1       -0.0623
     18 H           4.7527    1.6995    0.0000 H       1  UNL1        0.0276
     19 H           3.9822    1.5164    0.0000 H       1  UNL1        0.0276
     20 H           3.6340   -0.8986    0.0000 H       1  UNL1        0.0600
     21 H           4.6831    0.7752    0.0000 H       1  UNL1        0.0296
     22 H           5.0386   -0.3505    0.0000 H       1  UNL1        0.0296
     23 H           3.5579    1.0303    0.0000 H       1  UNL1        0.0328
     24 H           7.2458    0.6101    0.0000 H       1  UNL1        0.0271
     25 H           6.6021    0.9726    0.0000 H       1  UNL1        0.0271
     26 H           6.5342   -1.5623    0.0000 H       1  UNL1        0.0317
     27 H           7.3451   -1.3140    0.0000 H       1  UNL1        0.0317
     28 H           7.7475   -0.7043    0.0000 H       1  UNL1        0.0267
     29 H           7.6936    0.1302    0.0000 H       1  UNL1        0.0267
     30 H           6.1974    1.5604    0.0000 H       1  UNL1        0.0237
     31 H           5.9188    2.3918    0.0000 H       1  UNL1        0.0237
     32 H           5.0874    2.1131    0.0000 H       1  UNL1        0.0237
     33 H           6.7253    1.1852    0.0000 H       1  UNL1        0.0235
     34 H           6.4034    2.0007    0.0000 H       1  UNL1        0.0235
     35 H           5.5878    1.6788    0.0000 H       1  UNL1        0.0235
     36 H           2.1469    0.9136    0.0000 H       1  UNL1        0.0299
     37 H           6.3554   -1.8368    0.0000 H       1  UNL1        0.2128
     38 H           1.5816    0.5093    0.0000 H       1  UNL1        0.0232
     39 H           1.5424   -0.3666    0.0000 H       1  UNL1        0.0232
     40 H           2.4184   -0.4058    0.0000 H       1  UNL1        0.0232
     41 H           3.1281    1.8366    0.0000 H       1  UNL1        0.0232
     42 H           2.3891    2.3085    0.0000 H       1  UNL1        0.0232
     43 H           1.9172    1.5695    0.0000 H       1  UNL1        0.0232
@<TRIPOS>BOND
     1     1     5    1
     2     1     7    1
     3     5     2    1
     4     2    37    1
     5     3     4    1
     6     3     5    1
     7     3     6    1
     8     3    13    1
     9     4     8    1
    10     4    10    1
    11     4    14    1
    12     5    11    1
    13     6     9    1
    14     6    18    1
    15     6    19    1
    16     7     8    1
    17     7     9    1
    18     7    20    1
    19     8    21    1
    20     8    22    1
    21     9    15    1
    22     9    23    1
    23    10    12    1
    24    10    24    1
    25    10    25    1
    26    11    12    1
    27    11    26    1
    28    11    27    1
    29    12    28    1
    30    12    29    1
    31    13    30    1
    32    13    31    1
    33    13    32    1
    34    14    33    1
    35    14    34    1
    36    14    35    1
    37    15    16    1
    38    15    17    1
    39    15    36    1
    40    16    38    1
    41    16    39    1
    42    16    40    1
    43    17    41    1
    44    17    42    1
    45    17    43    1
