@<TRIPOS>MOLECULE
IMPHY010624
 51 54 0 0 0
SMALL
GASTEIGER

@<TRIPOS>ATOM
      1 C           1.1197  -11.2282    0.0000 C.3     1  UNL1        0.0000
      2 C           1.1197  -12.5190    0.0000 C.3     1  UNL1        0.0000
      3 C           2.2394  -13.1721    0.0000 C.3     1  UNL1        0.0000
      4 C           3.3591  -12.5190    0.0000 C.3     1  UNL1        0.0000
      5 C           3.3591  -11.2282    0.0000 C.3     1  UNL1        0.0000
      6 C           2.2394  -10.5750    0.0000 C.3     1  UNL1        0.0000
      7 C           4.4788  -13.1721    0.0000 C.3     1  UNL1        0.0000
      8 C           5.5985  -12.5190    0.0000 C.3     1  UNL1        0.0000
      9 C           5.5985  -11.2282    0.0000 C.3     1  UNL1        0.0000
     10 C           4.4788  -10.5750    0.0000 C.3     1  UNL1        0.0000
     11 C           6.7338  -10.5750    0.0000 C.3     1  UNL1        0.0000
     12 C           6.7338   -9.2842    0.0000 C.3     1  UNL1        0.0000
     13 C           5.5985   -8.6466    0.0000 C.3     1  UNL1        0.0000
     14 C           4.4788   -9.2842    0.0000 C.3     1  UNL1        0.0000
     15 C           7.8535   -7.3559    0.0000 C.3     1  UNL1        0.0000
     16 C           8.9732  -10.5750    0.0000 C.3     1  UNL1        0.0000
     17 C           8.9732   -9.2842    0.0000 C.3     1  UNL1        0.0000
     18 C           7.8535   -8.6466    0.0000 C.3     1  UNL1        0.0000
     19 C           8.9732   -6.7027    0.0000 C.3     1  UNL1        0.0000
     20 C          10.0929   -7.3559    0.0000 C.3     1  UNL1        0.0000
     21 C          11.2126   -6.7027    0.0000 C.3     1  UNL1        0.0000
     22 C          12.3323   -7.3559    0.0000 C.3     1  UNL1        0.0000
     23 C          13.4520   -6.7027    0.0000 C.3     1  UNL1        0.0000
     24 C          12.3323   -8.6466    0.0000 C.3     1  UNL1        0.0000
     25 C           6.7338   -6.7027    0.0000 C.3     1  UNL1        0.0000
     26 O          11.2126   -5.4119    0.0000 O.3     1  UNL1        0.0000
     27 O           0.0000  -13.1721    0.0000 O.3     1  UNL1        0.0000
     28 C           3.3591   -9.9374    0.0000 C.3     1  UNL1        0.0000
     29 C           6.7338   -7.9935    0.0000 C.3     1  UNL1        0.0000
     30 O          10.0929  -11.2282    0.0000 O.3     1  UNL1        0.0000
     31 O           5.5985   -9.8130    0.0000 O.3     1  UNL1        0.0000
     32 O           4.4788  -14.4629    0.0000 O.3     1  UNL1        0.0000
     33 C           9.9219   -5.4119    0.0000 C.3     1  UNL1        0.0000
     34 O          10.7461   -4.3233    0.0000 O.3     1  UNL1        0.0000
     35 C           9.9219   -3.2036    0.0000 C.3     1  UNL1        0.0000
     36 C           8.6000   -3.5768    0.0000 C.3     1  UNL1        0.0000
     37 C           8.6000   -4.9454    0.0000 C.3     1  UNL1        0.0000
     38 O           7.4181   -2.8459    0.0000 O.3     1  UNL1        0.0000
     39 S          13.3121   -1.1197    0.0000 S.3     1  UNL1        0.0000
     40 O           7.3092   -4.9454    0.0000 O.3     1  UNL1        0.0000
     41 O          14.4318   -1.7573    0.0000 O.co2   1  UNL1       -0.3300
     42 O          12.6589    0.0000    0.0000 O.2     1  UNL1       -0.3300
     43 O          13.9652    0.0000    0.0000 O.2     1  UNL1       -0.3300
     44 C          11.1660   -2.8615    0.0000 C.3     1  UNL1        0.0000
     45 O          12.0835   -1.9439    0.0000 O.3     1  UNL1        0.0000
     46 C           8.0557   -1.7262    0.0000 C.3     1  UNL1        0.0000
     47 H           8.9732   -7.9935    0.0000 H       1  UNL1        0.0000
     48 H           7.0604  -11.8347    0.0000 H       1  UNL1        0.0000
     49 H           4.4788  -12.0524    0.0000 H       1  UNL1        0.0000
     50 H           3.3591  -13.7942    0.0000 H       1  UNL1        0.0000
     51 NA         15.5515   -1.1197    0.0000 Na      2  UNL2        0.0000
@<TRIPOS>UNITY_ATOM_ATTR
41 1
charge -1
51 1
charge 1
@<TRIPOS>BOND
     1     1     2    1
     2     1     6    1
     3     2     3    1
     4     2    27    1
     5     3     4    1
     6     4     5    1
     7     4     7    1
     8     4    50    1
     9     5     6    1
    10     5    10    1
    11     5    28    1
    12     7     8    1
    13     7    32    1
    14     8     9    1
    15     9    10    1
    16     9    11    1
    17     9    31    1
    18    10    14    1
    19    10    49    1
    20    11    12    1
    21    11    16    1
    22    11    48    1
    23    12    13    1
    24    12    18    1
    25    12    29    1
    26    13    14    1
    27    15    18    1
    28    15    19    1
    29    15    25    1
    30    16    17    1
    31    16    30    1
    32    17    18    1
    33    18    47    1
    34    19    20    1
    35    21    20    1
    36    21    22    1
    37    21    26    1
    38    22    23    1
    39    22    24    1
    40    33    26    1
    41    33    34    1
    42    33    37    1
    43    34    35    1
    44    35    36    1
    45    35    44    1
    46    36    38    1
    47    36    37    1
    48    37    40    1
    49    38    46    1
    50    39    41    1
    51    39    42    2
    52    39    43    2
    53    39    45    1
    54    44    45    1
