@<TRIPOS>MOLECULE
IMPHY004972
 38 40 0 0 0
SMALL
GASTEIGER

@<TRIPOS>ATOM
      1 O           5.2658    2.4791    0.0000 O.2     1  UNL1       -0.2924
      2 C           2.9986   -0.7671    0.0000 C.3     1  UNL1       -0.0152
      3 C           5.8153   -0.6819    0.0000 C.3     1  UNL1       -0.0185
      4 C           4.4164   -0.6907    0.0000 C.3     1  UNL1       -0.0097
      5 C           4.6752    0.2752    0.0000 C.3     1  UNL1        0.0313
      6 C           5.7037   -1.6853    0.0000 C.3     1  UNL1       -0.0308
      7 C           3.1706   -1.7619    0.0000 C.3     1  UNL1       -0.0464
      8 C           4.9617   -2.3699    0.0000 C.3     1  UNL1       -0.0476
      9 C           3.1954    0.9269    0.0000 C.2     1  UNL1       -0.0654
     10 C           3.9526   -2.4004    0.0000 C.3     1  UNL1       -0.0520
     11 C           2.0000   -0.8209    0.0000 C.3     1  UNL1       -0.0583
     12 C           4.5967    1.7359    0.0000 C.2     1  UNL1        0.1599
     13 C           3.6022    1.8405    0.0000 C.2     1  UNL1       -0.0196
     14 C           6.7035   -1.7047    0.0000 C.3     1  UNL1       -0.0595
     15 C           6.3119   -2.4791    0.0000 C.3     1  UNL1       -0.0595
     16 C           2.2173    0.7190    0.0000 C.3     1  UNL1       -0.0431
     17 H           6.3909   -0.4515    0.0000 H       1  UNL1        0.0319
     18 H           3.8542   -0.4293    0.0000 H       1  UNL1        0.0354
     19 H           5.2299    0.5521    0.0000 H       1  UNL1        0.0389
     20 H           2.5546   -1.6913    0.0000 H       1  UNL1        0.0271
     21 H           2.9295   -2.3331    0.0000 H       1  UNL1        0.0271
     22 H           4.8053   -2.9698    0.0000 H       1  UNL1        0.0271
     23 H           5.4934   -2.6888    0.0000 H       1  UNL1        0.0271
     24 H           3.4412   -2.7509    0.0000 H       1  UNL1        0.0266
     25 H           4.1450   -2.9898    0.0000 H       1  UNL1        0.0266
     26 H           1.9667   -0.2018    0.0000 H       1  UNL1        0.0235
     27 H           1.3809   -0.8542    0.0000 H       1  UNL1        0.0235
     28 H           2.0333   -1.4400    0.0000 H       1  UNL1        0.0235
     29 H           3.2922    2.3774    0.0000 H       1  UNL1        0.0652
     30 H           6.6915   -2.3246    0.0000 H       1  UNL1        0.0235
     31 H           7.3234   -1.7168    0.0000 H       1  UNL1        0.0235
     32 H           6.7156   -1.0848    0.0000 H       1  UNL1        0.0235
     33 H           5.8198   -2.8562    0.0000 H       1  UNL1        0.0235
     34 H           6.6890   -2.9712    0.0000 H       1  UNL1        0.0235
     35 H           6.8041   -2.1020    0.0000 H       1  UNL1        0.0235
     36 H           2.0884    1.3255    0.0000 H       1  UNL1        0.0275
     37 H           1.6108    0.5901    0.0000 H       1  UNL1        0.0275
     38 H           2.3462    0.1126    0.0000 H       1  UNL1        0.0275
@<TRIPOS>BOND
     1     1    12    2
     2     2     4    1
     3     2     5    1
     4     2     7    1
     5     2    11    1
     6     3     4    1
     7     3     5    1
     8     3     6    1
     9     3    17    1
    10     4     9    1
    11     4    18    1
    12     5    12    1
    13     5    19    1
    14     6     8    1
    15     6    14    1
    16     6    15    1
    17     7    10    1
    18     7    20    1
    19     7    21    1
    20     8    10    1
    21     8    22    1
    22     8    23    1
    23     9    13    2
    24     9    16    1
    25    10    24    1
    26    10    25    1
    27    11    26    1
    28    11    27    1
    29    11    28    1
    30    12    13    1
    31    13    29    1
    32    14    30    1
    33    14    31    1
    34    14    32    1
    35    15    33    1
    36    15    34    1
    37    15    35    1
    38    16    36    1
    39    16    37    1
    40    16    38    1
