@<TRIPOS>MOLECULE
IMPHY009253
 39 41 0 0 0
SMALL
GASTEIGER

@<TRIPOS>ATOM
      1 O           5.4920   -1.6117    0.0000 O.3     1  UNL1       -0.4900
      2 O           5.4804    1.4575    0.0000 O.2     1  UNL1       -0.2910
      3 O           3.7320    1.4229    0.0000 O.3     1  UNL1       -0.5056
      4 O           2.0000   -1.5771    0.0000 O.3     1  UNL1       -0.4946
      5 O           8.1340   -1.0496    0.0000 O.3     1  UNL1       -0.5064
      6 O           9.8544    1.9571    0.0000 O.3     1  UNL1       -0.5066
      7 C           6.3981   -0.0563    0.0000 C.3     1  UNL1        0.0847
      8 C           6.3981   -1.0979    0.0000 C.3     1  UNL1        0.1036
      9 C           5.4920    0.4576    0.0000 C.2     1  UNL1        0.1809
     10 C           4.5981   -0.0771    0.0000 C.ar    1  UNL1        0.1015
     11 C           7.2622    0.4471    0.0000 C.ar    1  UNL1        0.0081
     12 C           4.5981   -1.0771    0.0000 C.ar    1  UNL1        0.1380
     13 C           3.7320    0.4229    0.0000 C.ar    1  UNL1        0.1372
     14 C           2.8660   -0.0771    0.0000 C.ar    1  UNL1        0.0335
     15 C           3.7320   -1.5771    0.0000 C.ar    1  UNL1        0.0230
     16 C           8.1301   -0.0496    0.0000 C.ar    1  UNL1        0.1243
     17 C           2.8660   -1.0771    0.0000 C.ar    1  UNL1        0.1300
     18 C           7.2583    1.4471    0.0000 C.ar    1  UNL1       -0.0509
     19 C           8.9942    0.4538    0.0000 C.ar    1  UNL1        0.0216
     20 C           2.0000    0.4229    0.0000 C.3     1  UNL1       -0.0327
     21 C           8.1224    1.9504    0.0000 C.ar    1  UNL1       -0.0197
     22 C           8.9904    1.4537    0.0000 C.ar    1  UNL1        0.1203
     23 C           2.0000   -2.5771    0.0000 C.3     1  UNL1        0.0788
     24 H           6.9356   -0.3652    0.0000 H       1  UNL1        0.0464
     25 H           6.6071   -1.6816    0.0000 H       1  UNL1        0.0707
     26 H           7.0089   -0.9918    0.0000 H       1  UNL1        0.0707
     27 H           3.7320   -2.1971    0.0000 H       1  UNL1        0.0691
     28 H           6.7202    1.7550    0.0000 H       1  UNL1        0.0623
     29 H           9.5323    0.1458    0.0000 H       1  UNL1        0.0691
     30 H           2.3100    0.9599    0.0000 H       1  UNL1        0.0280
     31 H           1.4631    0.7329    0.0000 H       1  UNL1        0.0280
     32 H           1.6900   -0.1140    0.0000 H       1  UNL1        0.0280
     33 H           8.1200    2.5704    0.0000 H       1  UNL1        0.0654
     34 H           3.1951    1.7329    0.0000 H       1  UNL1        0.2922
     35 H           8.6721   -1.3575    0.0000 H       1  UNL1        0.2921
     36 H           1.3800   -2.5771    0.0000 H       1  UNL1        0.0660
     37 H           2.0000   -3.1971    0.0000 H       1  UNL1        0.0660
     38 H           2.6200   -2.5771    0.0000 H       1  UNL1        0.0660
     39 H           9.8521    2.5771    0.0000 H       1  UNL1        0.2921
@<TRIPOS>BOND
     1     1     8    1
     2     1    12    1
     3     2     9    2
     4     3    13    1
     5     3    34    1
     6     4    17    1
     7     4    23    1
     8     5    16    1
     9     5    35    1
    10     6    22    1
    11     6    39    1
    12     7     8    1
    13     7     9    1
    14     7    11    1
    15     7    24    1
    16     8    25    1
    17     8    26    1
    18     9    10    1
    19    10    12   ar
    20    10    13   ar
    21    11    16   ar
    22    11    18   ar
    23    12    15   ar
    24    13    14   ar
    25    14    17   ar
    26    14    20    1
    27    15    17   ar
    28    15    27    1
    29    16    19   ar
    30    18    21   ar
    31    18    28    1
    32    19    22   ar
    33    19    29    1
    34    20    30    1
    35    20    31    1
    36    20    32    1
    37    21    22   ar
    38    21    33    1
    39    23    36    1
    40    23    37    1
    41    23    38    1
