@<TRIPOS>MOLECULE
IMPHY015253
 51 50 0 0 0
SMALL
GASTEIGER

@<TRIPOS>ATOM
      1 O           2.5369   -0.4330    0.0000 O.3     1  UNL1       -0.3945
      2 C           4.2690   -0.4330    0.0000 C.3     1  UNL1       -0.0092
      3 C           5.1350    0.0670    0.0000 C.3     1  UNL1       -0.0455
      4 C           6.0010   -0.4330    0.0000 C.3     1  UNL1       -0.0525
      5 C           3.7690    0.4330    0.0000 C.3     1  UNL1       -0.0484
      6 C           6.8671    0.0670    0.0000 C.3     1  UNL1       -0.0530
      7 C           3.4030   -0.9330    0.0000 C.3     1  UNL1        0.0496
      8 C           4.7690   -1.2990    0.0000 C.3     1  UNL1       -0.0575
      9 C           7.7331   -0.4330    0.0000 C.3     1  UNL1       -0.0531
     10 C           8.5991    0.0670    0.0000 C.3     1  UNL1       -0.0531
     11 C           9.4651   -0.4330    0.0000 C.3     1  UNL1       -0.0531
     12 C           4.2690    1.2990    0.0000 C.3     1  UNL1       -0.0647
     13 C          10.3312    0.0670    0.0000 C.3     1  UNL1       -0.0531
     14 C          11.1972   -0.4330    0.0000 C.3     1  UNL1       -0.0531
     15 C          12.0632    0.0670    0.0000 C.3     1  UNL1       -0.0533
     16 C          12.9292   -0.4330    0.0000 C.3     1  UNL1       -0.0559
     17 C          13.7953    0.0670    0.0000 C.3     1  UNL1       -0.0653
     18 H           5.5335    0.5419    0.0000 H       1  UNL1        0.0271
     19 H           4.7365    0.5419    0.0000 H       1  UNL1        0.0271
     20 H           5.6025   -0.9080    0.0000 H       1  UNL1        0.0265
     21 H           6.3996   -0.9080    0.0000 H       1  UNL1        0.0265
     22 H           3.2940    0.8315    0.0000 H       1  UNL1        0.0269
     23 H           3.2940    0.0345    0.0000 H       1  UNL1        0.0269
     24 H           7.2656    0.5419    0.0000 H       1  UNL1        0.0265
     25 H           6.4685    0.5419    0.0000 H       1  UNL1        0.0265
     26 H           3.0044   -1.4080    0.0000 H       1  UNL1        0.0562
     27 H           3.8015   -1.4080    0.0000 H       1  UNL1        0.0562
     28 H           4.2320   -1.6090    0.0000 H       1  UNL1        0.0236
     29 H           5.0790   -1.8360    0.0000 H       1  UNL1        0.0236
     30 H           5.3059   -0.9890    0.0000 H       1  UNL1        0.0236
     31 H           7.3346   -0.9080    0.0000 H       1  UNL1        0.0265
     32 H           8.1316   -0.9080    0.0000 H       1  UNL1        0.0265
     33 H           8.9976    0.5419    0.0000 H       1  UNL1        0.0265
     34 H           8.2006    0.5419    0.0000 H       1  UNL1        0.0265
     35 H           9.0666   -0.9080    0.0000 H       1  UNL1        0.0265
     36 H           9.8637   -0.9080    0.0000 H       1  UNL1        0.0265
     37 H           4.8059    0.9890    0.0000 H       1  UNL1        0.0230
     38 H           4.5790    1.8360    0.0000 H       1  UNL1        0.0230
     39 H           3.7320    1.6090    0.0000 H       1  UNL1        0.0230
     40 H          10.7297    0.5419    0.0000 H       1  UNL1        0.0265
     41 H           9.9326    0.5419    0.0000 H       1  UNL1        0.0265
     42 H          10.7987   -0.9080    0.0000 H       1  UNL1        0.0265
     43 H          11.5957   -0.9080    0.0000 H       1  UNL1        0.0265
     44 H          12.4617    0.5419    0.0000 H       1  UNL1        0.0265
     45 H          11.6647    0.5419    0.0000 H       1  UNL1        0.0265
     46 H           2.0000   -0.7430    0.0000 H       1  UNL1        0.2094
     47 H          12.5307   -0.9080    0.0000 H       1  UNL1        0.0263
     48 H          13.3278   -0.9080    0.0000 H       1  UNL1        0.0263
     49 H          14.1053   -0.4699    0.0000 H       1  UNL1        0.0230
     50 H          14.3322    0.3770    0.0000 H       1  UNL1        0.0230
     51 H          13.4853    0.6039    0.0000 H       1  UNL1        0.0230
@<TRIPOS>BOND
     1     1     7    1
     2     1    46    1
     3     2     3    1
     4     2     5    1
     5     2     7    1
     6     2     8    1
     7     3     4    1
     8     3    18    1
     9     3    19    1
    10     4     6    1
    11     4    20    1
    12     4    21    1
    13     5    12    1
    14     5    22    1
    15     5    23    1
    16     6     9    1
    17     6    24    1
    18     6    25    1
    19     7    26    1
    20     7    27    1
    21     8    28    1
    22     8    29    1
    23     8    30    1
    24     9    10    1
    25     9    31    1
    26     9    32    1
    27    10    11    1
    28    10    33    1
    29    10    34    1
    30    11    13    1
    31    11    35    1
    32    11    36    1
    33    12    37    1
    34    12    38    1
    35    12    39    1
    36    13    14    1
    37    13    40    1
    38    13    41    1
    39    14    15    1
    40    14    42    1
    41    14    43    1
    42    15    16    1
    43    15    44    1
    44    15    45    1
    45    16    17    1
    46    16    47    1
    47    16    48    1
    48    17    49    1
    49    17    50    1
    50    17    51    1
