@<TRIPOS>MOLECULE
IMPHY008375
 38 40 0 0 0
SMALL
GASTEIGER

@<TRIPOS>ATOM
      1 O           7.4513   -0.4560    0.0000 O.3     1  UNL1       -0.4531
      2 O           3.4035    0.5297    0.0000 O.2     1  UNL1       -0.2925
      3 O           7.6925   -2.2880    0.0000 O.2     1  UNL1       -0.2505
      4 C           4.5725   -1.7788    0.0000 C.3     1  UNL1       -0.0115
      5 C           3.7435   -1.2196    0.0000 C.3     1  UNL1        0.0541
      6 C           5.7936   -0.9131    0.0000 C.3     1  UNL1        0.0673
      7 C           5.3158    1.0354    0.0000 C.3     1  UNL1        0.0187
      8 C           6.0524    0.0528    0.0000 C.3     1  UNL1        0.1651
      9 C           4.2960   -2.7336    0.0000 C.3     1  UNL1       -0.0445
     10 C           4.0191   -0.2583    0.0000 C.2     1  UNL1        0.1839
     11 C           2.9617   -1.8336    0.0000 C.2     1  UNL1       -0.0632
     12 C           3.3025   -2.7675    0.0000 C.3     1  UNL1       -0.0308
     13 C           4.8158    1.9014    0.0000 C.3     1  UNL1       -0.0393
     14 C           7.1925   -1.4219    0.0000 C.2     1  UNL1        0.3116
     15 C           2.9144   -0.6604    0.0000 C.3     1  UNL1       -0.0487
     16 C           5.3158    2.7675    0.0000 C.3     1  UNL1       -0.0623
     17 C           3.8158    1.9014    0.0000 C.3     1  UNL1       -0.0623
     18 C           2.0000   -1.5597    0.0000 C.2     1  UNL1       -0.0985
     19 H           5.2772   -2.2541    0.0000 H       1  UNL1        0.0321
     20 H           5.5736   -1.7342    0.0000 H       1  UNL1        0.0421
     21 H           5.8332    1.3770    0.0000 H       1  UNL1        0.0351
     22 H           6.2724    0.8738    0.0000 H       1  UNL1        0.0818
     23 H           4.2519   -3.3521    0.0000 H       1  UNL1        0.0272
     24 H           4.9064   -2.8425    0.0000 H       1  UNL1        0.0272
     25 H           2.7010   -2.9176    0.0000 H       1  UNL1        0.0310
     26 H           3.3886   -3.3815    0.0000 H       1  UNL1        0.0310
     27 H           5.4358    1.9014    0.0000 H       1  UNL1        0.0300
     28 H           3.2612   -0.1464    0.0000 H       1  UNL1        0.0242
     29 H           2.4005   -0.3137    0.0000 H       1  UNL1        0.0242
     30 H           2.5678   -1.1744    0.0000 H       1  UNL1        0.0242
     31 H           5.8527    2.4575    0.0000 H       1  UNL1        0.0232
     32 H           5.6258    3.3044    0.0000 H       1  UNL1        0.0232
     33 H           4.7788    3.0775    0.0000 H       1  UNL1        0.0232
     34 H           3.8158    2.5215    0.0000 H       1  UNL1        0.0232
     35 H           3.1958    1.9014    0.0000 H       1  UNL1        0.0232
     36 H           3.8158    1.2814    0.0000 H       1  UNL1        0.0232
     37 H           1.8490   -0.9583    0.0000 H       1  UNL1        0.0535
     38 H           1.5548   -1.9911    0.0000 H       1  UNL1        0.0535
@<TRIPOS>BOND
     1     1     8    1
     2     1    14    1
     3     2    10    2
     4     3    14    2
     5     4     5    1
     6     4     6    1
     7     4     9    1
     8     4    19    1
     9     5    10    1
    10     5    11    1
    11     5    15    1
    12     6     7    1
    13     6    14    1
    14     6    20    1
    15     7     8    1
    16     7    13    1
    17     7    21    1
    18     8    10    1
    19     8    22    1
    20     9    12    1
    21     9    23    1
    22     9    24    1
    23    11    12    1
    24    11    18    2
    25    12    25    1
    26    12    26    1
    27    13    16    1
    28    13    17    1
    29    13    27    1
    30    15    28    1
    31    15    29    1
    32    15    30    1
    33    16    31    1
    34    16    32    1
    35    16    33    1
    36    17    34    1
    37    17    35    1
    38    17    36    1
    39    18    37    1
    40    18    38    1
