@<TRIPOS>MOLECULE
IMPHY005515
 53 55 0 0 0
SMALL
GASTEIGER

@<TRIPOS>ATOM
      1 O          11.5542   -1.0347    0.0000 O.3     1  UNL1       -0.4815
      2 O           9.7942    2.0000    0.0000 O.3     1  UNL1       -0.5053
      3 O           8.0622    2.0000    0.0000 O.2     1  UNL1       -0.2872
      4 O           4.5981    2.0000    0.0000 O.3     1  UNL1       -0.4944
      5 O           4.5981   -2.0000    0.0000 O.3     1  UNL1       -0.4914
      6 O           2.8660   -1.0000    0.0000 O.3     1  UNL1       -0.4913
      7 C          12.4603   -0.5208    0.0000 C.3     1  UNL1        0.1235
      8 C          12.4603    0.5208    0.0000 C.2     1  UNL1       -0.0408
      9 C          10.6603    0.5000    0.0000 C.ar    1  UNL1        0.0586
     10 C          10.6603   -0.5000    0.0000 C.ar    1  UNL1        0.1324
     11 C          13.4603   -0.5247    0.0000 C.3     1  UNL1       -0.0215
     12 C          12.9569   -1.3888    0.0000 C.3     1  UNL1       -0.0215
     13 C          11.5542    1.0347    0.0000 C.2     1  UNL1       -0.0478
     14 C           9.7942    1.0000    0.0000 C.ar    1  UNL1        0.1382
     15 C           9.7942   -1.0000    0.0000 C.ar    1  UNL1       -0.0184
     16 C           8.9282    0.5000    0.0000 C.ar    1  UNL1        0.0638
     17 C           8.9282   -0.5000    0.0000 C.ar    1  UNL1       -0.0439
     18 C           8.0622    1.0000    0.0000 C.2     1  UNL1        0.1896
     19 C           7.1962    0.5000    0.0000 C.2     1  UNL1       -0.0136
     20 C           5.4641    0.5000    0.0000 C.ar    1  UNL1        0.0205
     21 C           6.3301    1.0000    0.0000 C.2     1  UNL1       -0.0474
     22 C           4.5981    1.0000    0.0000 C.ar    1  UNL1        0.1309
     23 C           5.4641   -0.5000    0.0000 C.ar    1  UNL1       -0.0057
     24 C           4.5981   -1.0000    0.0000 C.ar    1  UNL1        0.1623
     25 C           3.7320   -0.5000    0.0000 C.ar    1  UNL1        0.1650
     26 C           3.7320    0.5000    0.0000 C.ar    1  UNL1        0.0260
     27 C           3.7320    2.5000    0.0000 C.3     1  UNL1        0.0788
     28 C           3.7320   -2.5000    0.0000 C.3     1  UNL1        0.0790
     29 C           2.0000   -0.5000    0.0000 C.3     1  UNL1        0.0790
     30 H          12.9960    0.8329    0.0000 H       1  UNL1        0.0611
     31 H          13.4579   -1.1447    0.0000 H       1  UNL1        0.0271
     32 H          12.4188   -1.6967    0.0000 H       1  UNL1        0.0271
     33 H          13.2648   -1.9269    0.0000 H       1  UNL1        0.0271
     34 H          13.4950   -1.0808    0.0000 H       1  UNL1        0.0271
     35 H          14.0803   -0.5271    0.0000 H       1  UNL1        0.0271
     36 H          13.4626    0.0953    0.0000 H       1  UNL1        0.0271
     37 H          11.5470    1.6546    0.0000 H       1  UNL1        0.0624
     38 H           9.7942   -1.6200    0.0000 H       1  UNL1        0.0654
     39 H           8.3913   -0.8100    0.0000 H       1  UNL1        0.0627
     40 H           7.1962   -0.1200    0.0000 H       1  UNL1        0.0656
     41 H          10.3312    2.3100    0.0000 H       1  UNL1        0.2922
     42 H           6.3301    1.6200    0.0000 H       1  UNL1        0.0626
     43 H           6.0010   -0.8100    0.0000 H       1  UNL1        0.0662
     44 H           3.1951    0.8100    0.0000 H       1  UNL1        0.0692
     45 H           4.0420    3.0369    0.0000 H       1  UNL1        0.0660
     46 H           3.1951    2.8100    0.0000 H       1  UNL1        0.0660
     47 H           3.4220    1.9631    0.0000 H       1  UNL1        0.0660
     48 H           3.4220   -1.9631    0.0000 H       1  UNL1        0.0660
     49 H           3.1951   -2.8100    0.0000 H       1  UNL1        0.0660
     50 H           4.0420   -3.0369    0.0000 H       1  UNL1        0.0660
     51 H           2.3100    0.0369    0.0000 H       1  UNL1        0.0660
     52 H           1.4631   -0.1900    0.0000 H       1  UNL1        0.0660
     53 H           1.6900   -1.0369    0.0000 H       1  UNL1        0.0660
@<TRIPOS>BOND
     1     1     7    1
     2     1    10    1
     3     2    14    1
     4     2    41    1
     5     3    18    2
     6     4    22    1
     7     4    27    1
     8     5    24    1
     9     5    28    1
    10     6    25    1
    11     6    29    1
    12     7     8    1
    13     7    11    1
    14     7    12    1
    15     8    13    2
    16     8    30    1
    17     9    10   ar
    18     9    13    1
    19     9    14   ar
    20    10    15   ar
    21    11    31    1
    22    11    35    1
    23    11    36    1
    24    12    32    1
    25    12    33    1
    26    12    34    1
    27    13    37    1
    28    14    16   ar
    29    15    17   ar
    30    15    38    1
    31    16    17   ar
    32    16    18    1
    33    17    39    1
    34    18    19    1
    35    19    21    2
    36    19    40    1
    37    20    21    1
    38    20    22   ar
    39    20    23   ar
    40    21    42    1
    41    22    26   ar
    42    23    24   ar
    43    23    43    1
    44    24    25   ar
    45    25    26   ar
    46    26    44    1
    47    27    45    1
    48    27    46    1
    49    27    47    1
    50    28    48    1
    51    28    49    1
    52    28    50    1
    53    29    51    1
    54    29    52    1
    55    29    53    1
