@<TRIPOS>MOLECULE
IMPHY011052
 78 79 0 0 0
SMALL
GASTEIGER

@<TRIPOS>ATOM
      1 O          10.7282    0.0905    0.0000 O.3     1  UNL1       -0.4237
      2 O           6.3320   -0.4337    0.0000 O.3     1  UNL1       -0.4538
      3 O           9.8622   -1.4095    0.0000 O.3     1  UNL1       -0.4238
      4 O          11.1890    2.7038    0.0000 O.3     1  UNL1       -0.4610
      5 O          11.5942    1.5905    0.0000 O.2     1  UNL1       -0.2503
      6 O          11.5942   -1.4095    0.0000 O.2     1  UNL1       -0.2504
      7 O           5.4602    1.0630    0.0000 O.2     1  UNL1       -0.2456
      8 O          10.8882    4.4095    0.0000 O.2     1  UNL1       -0.2512
      9 C           8.9961    1.0905    0.0000 C.3     1  UNL1       -0.0080
     10 C           8.1022    1.6251    0.0000 C.3     1  UNL1       -0.0306
     11 C           8.9961    0.0905    0.0000 C.3     1  UNL1        0.0616
     12 C           9.8622    1.5905    0.0000 C.3     1  UNL1        0.0969
     13 C           7.1961    1.1113    0.0000 C.3     1  UNL1       -0.0083
     14 C           7.7710    2.5687    0.0000 C.3     1  UNL1       -0.0435
     15 C           7.1961    0.0696    0.0000 C.3     1  UNL1        0.1250
     16 C           8.1022   -0.4442    0.0000 C.2     1  UNL1       -0.0262
     17 C           9.8622   -0.4095    0.0000 C.3     1  UNL1        0.2559
     18 C          10.2042    2.5302    0.0000 C.3     1  UNL1        0.1134
     19 C          10.7282    1.0905    0.0000 C.2     1  UNL1        0.3170
     20 C           6.7883    2.7537    0.0000 C.3     1  UNL1       -0.0624
     21 C           8.4227    3.3273    0.0000 C.3     1  UNL1       -0.0624
     22 C           8.1137   -1.4441    0.0000 C.2     1  UNL1       -0.0955
     23 C           9.5614    3.2962    0.0000 C.3     1  UNL1       -0.0269
     24 C          10.7282   -1.9095    0.0000 C.2     1  UNL1        0.3128
     25 C           5.4641    0.0630    0.0000 C.2     1  UNL1        0.3324
     26 C          11.5310    3.6435    0.0000 C.2     1  UNL1        0.3042
     27 C          10.7282   -2.9095    0.0000 C.3     1  UNL1        0.0535
     28 C           4.6000   -0.4404    0.0000 C.2     1  UNL1        0.0215
     29 C          11.5942   -3.4095    0.0000 C.3     1  UNL1       -0.0432
     30 C          12.5158    3.8171    0.0000 C.3     1  UNL1        0.0332
     31 C           9.8622   -3.4095    0.0000 C.3     1  UNL1       -0.0523
     32 C           3.7320    0.0563    0.0000 C.2     1  UNL1       -0.0661
     33 C          11.5942   -4.4095    0.0000 C.3     1  UNL1       -0.0645
     34 C           2.8680   -0.4470    0.0000 C.3     1  UNL1       -0.0343
     35 C           3.7282    1.0563    0.0000 C.3     1  UNL1       -0.0433
     36 C           2.0000    0.0496    0.0000 C.3     1  UNL1       -0.0616
     37 H           9.0027    1.9404    0.0000 H       1  UNL1        0.0321
     38 H           7.5216    1.8428    0.0000 H       1  UNL1        0.0308
     39 H           9.0027   -0.7595    0.0000 H       1  UNL1        0.0422
     40 H          10.6609    1.8812    0.0000 H       1  UNL1        0.0453
     41 H           6.9871    1.6950    0.0000 H       1  UNL1        0.0307
     42 H           6.5853    1.0052    0.0000 H       1  UNL1        0.0307
     43 H           8.3803    2.4540    0.0000 H       1  UNL1        0.0298
     44 H           6.6586    0.3786    0.0000 H       1  UNL1        0.0782
     45 H          10.3991   -0.7195    0.0000 H       1  UNL1        0.1213
     46 H          10.4162    3.1128    0.0000 H       1  UNL1        0.0739
     47 H           6.9030    3.3630    0.0000 H       1  UNL1        0.0232
     48 H           6.1790    2.8684    0.0000 H       1  UNL1        0.0232
     49 H           6.6736    2.1444    0.0000 H       1  UNL1        0.0232
     50 H           8.8930    2.9233    0.0000 H       1  UNL1        0.0232
     51 H           8.8267    3.7976    0.0000 H       1  UNL1        0.0232
     52 H           7.9523    3.7313    0.0000 H       1  UNL1        0.0232
     53 H           7.5804   -1.7603    0.0000 H       1  UNL1        0.0536
     54 H           8.6542   -1.7479    0.0000 H       1  UNL1        0.0536
     55 H          10.0363    3.6947    0.0000 H       1  UNL1        0.0265
     56 H           9.1628    3.7712    0.0000 H       1  UNL1        0.0265
     57 H           9.0864    2.8977    0.0000 H       1  UNL1        0.0265
     58 H          10.1912   -2.5995    0.0000 H       1  UNL1        0.0410
     59 H           4.6024   -1.0604    0.0000 H       1  UNL1        0.0688
     60 H          12.2048   -3.5172    0.0000 H       1  UNL1        0.0270
     61 H          11.8063   -2.8269    0.0000 H       1  UNL1        0.0270
     62 H          12.6235    3.2066    0.0000 H       1  UNL1        0.0342
     63 H          13.1264    3.9248    0.0000 H       1  UNL1        0.0342
     64 H          12.4081    4.4277    0.0000 H       1  UNL1        0.0342
     65 H           9.5521   -2.8726    0.0000 H       1  UNL1        0.0238
     66 H           9.3252   -3.7195    0.0000 H       1  UNL1        0.0238
     67 H          10.1721   -3.9465    0.0000 H       1  UNL1        0.0238
     68 H          10.9742   -4.4095    0.0000 H       1  UNL1        0.0230
     69 H          11.5942   -5.0295    0.0000 H       1  UNL1        0.0230
     70 H          12.2142   -4.4095    0.0000 H       1  UNL1        0.0230
     71 H           2.4712   -0.9235    0.0000 H       1  UNL1        0.0307
     72 H           3.2683   -0.9204    0.0000 H       1  UNL1        0.0307
     73 H           4.3482    1.0587    0.0000 H       1  UNL1        0.0274
     74 H           3.7258    1.6763    0.0000 H       1  UNL1        0.0274
     75 H           3.1082    1.0539    0.0000 H       1  UNL1        0.0274
     76 H           2.3079    0.5877    0.0000 H       1  UNL1        0.0233
     77 H           1.4619    0.3575    0.0000 H       1  UNL1        0.0233
     78 H           1.6921   -0.4885    0.0000 H       1  UNL1        0.0233
@<TRIPOS>BOND
     1     1    17    1
     2     1    19    1
     3    15     2    1
     4     2    25    1
     5    17     3    1
     6     3    24    1
     7    18     4    1
     8     4    26    1
     9     5    19    2
    10     6    24    2
    11     7    25    2
    12     8    26    2
    13     9    10    1
    14     9    11    1
    15     9    12    1
    16     9    37    1
    17    10    13    1
    18    10    14    1
    19    10    38    1
    20    11    16    1
    21    11    17    1
    22    11    39    1
    23    12    18    1
    24    12    19    1
    25    12    40    1
    26    13    15    1
    27    13    41    1
    28    13    42    1
    29    14    20    1
    30    14    21    1
    31    14    43    1
    32    15    16    1
    33    15    44    1
    34    16    22    2
    35    17    45    1
    36    18    23    1
    37    18    46    1
    38    20    47    1
    39    20    48    1
    40    20    49    1
    41    21    50    1
    42    21    51    1
    43    21    52    1
    44    22    53    1
    45    22    54    1
    46    23    55    1
    47    23    56    1
    48    23    57    1
    49    24    27    1
    50    25    28    1
    51    26    30    1
    52    27    29    1
    53    27    31    1
    54    27    58    1
    55    28    32    2
    56    28    59    1
    57    29    33    1
    58    29    60    1
    59    29    61    1
    60    30    62    1
    61    30    63    1
    62    30    64    1
    63    31    65    1
    64    31    66    1
    65    31    67    1
    66    32    34    1
    67    32    35    1
    68    33    68    1
    69    33    69    1
    70    33    70    1
    71    34    36    1
    72    34    71    1
    73    34    72    1
    74    35    73    1
    75    35    74    1
    76    35    75    1
    77    36    76    1
    78    36    77    1
    79    36    78    1
