@<TRIPOS>MOLECULE
IMPHY011139
 49 50 0 0 0
SMALL
GASTEIGER

@<TRIPOS>ATOM
      1 O           5.6630   -2.2170    0.0000 O.3     1  UNL1       -0.4531
      2 O           4.5981   -0.4800    0.0000 O.3     1  UNL1       -0.4603
      3 O           6.0211    2.4711    0.0000 O.3     1  UNL1       -0.3847
      4 O           4.0542   -2.0539    0.0000 O.2     1  UNL1       -0.2453
      5 O           3.7320    1.0200    0.0000 O.2     1  UNL1       -0.2505
      6 O           8.9282    0.0200    0.0000 O.2     1  UNL1       -0.2876
      7 C           6.3301   -0.4800    0.0000 C.3     1  UNL1        0.0681
      8 C           5.4641    0.0200    0.0000 C.3     1  UNL1        0.1166
      9 C           6.3301   -1.4800    0.0000 C.3     1  UNL1        0.1325
     10 C           5.4641    1.0200    0.0000 C.3     1  UNL1        0.0173
     11 C           6.3301    1.5200    0.0000 C.3     1  UNL1        0.0851
     12 C           5.3583   -0.6892    0.0000 C.2     1  UNL1        0.0400
     13 C           7.1962   -1.9800    0.0000 C.2     1  UNL1       -0.0367
     14 C           5.0053   -1.7449    0.0000 C.2     1  UNL1        0.3357
     15 C           6.6391    2.4711    0.0000 C.3     1  UNL1       -0.0323
     16 C           7.1962    1.0200    0.0000 C.2     1  UNL1       -0.0494
     17 C           8.0622   -1.4800    0.0000 C.2     1  UNL1       -0.0043
     18 C           4.7691    0.1188    0.0000 C.2     1  UNL1       -0.0882
     19 C           3.7320    0.0200    0.0000 C.2     1  UNL1        0.3099
     20 C           7.1962    0.0200    0.0000 C.2     1  UNL1       -0.0159
     21 C           8.0622   -0.4800    0.0000 C.2     1  UNL1        0.1815
     22 C           2.8660   -0.4800    0.0000 C.3     1  UNL1        0.0508
     23 C           8.9282   -1.9800    0.0000 C.3     1  UNL1       -0.0363
     24 C           2.0000    0.0200    0.0000 C.3     1  UNL1       -0.0525
     25 C           2.8660   -1.4800    0.0000 C.3     1  UNL1       -0.0525
     26 H           7.0662   -0.0550    0.0000 H       1  UNL1        0.0427
     27 H           4.9272    0.3300    0.0000 H       1  UNL1        0.0742
     28 H           6.4620   -2.3197    0.0000 H       1  UNL1        0.0787
     29 H           5.2520    1.6026    0.0000 H       1  UNL1        0.0332
     30 H           4.8535    0.9124    0.0000 H       1  UNL1        0.0332
     31 H           7.1962   -2.6000    0.0000 H       1  UNL1        0.0612
     32 H           7.2288    2.2795    0.0000 H       1  UNL1        0.0260
     33 H           6.8307    3.0607    0.0000 H       1  UNL1        0.0260
     34 H           6.0495    2.6627    0.0000 H       1  UNL1        0.0260
     35 H           7.7331    1.3300    0.0000 H       1  UNL1        0.0601
     36 H           5.0203    0.6856    0.0000 H       1  UNL1        0.0540
     37 H           4.1526    0.0529    0.0000 H       1  UNL1        0.0540
     38 H           5.4147    2.6000    0.0000 H       1  UNL1        0.2106
     39 H           6.9841   -0.5626    0.0000 H       1  UNL1        0.0653
     40 H           2.8660    0.1400    0.0000 H       1  UNL1        0.0408
     41 H           8.6182   -2.5169    0.0000 H       1  UNL1        0.0279
     42 H           9.4651   -2.2900    0.0000 H       1  UNL1        0.0279
     43 H           9.2382   -1.4430    0.0000 H       1  UNL1        0.0279
     44 H           2.3100    0.5570    0.0000 H       1  UNL1        0.0237
     45 H           1.4631    0.3300    0.0000 H       1  UNL1        0.0237
     46 H           1.6900   -0.5169    0.0000 H       1  UNL1        0.0237
     47 H           2.2460   -1.4800    0.0000 H       1  UNL1        0.0237
     48 H           2.8660   -2.1000    0.0000 H       1  UNL1        0.0237
     49 H           3.4860   -1.4800    0.0000 H       1  UNL1        0.0237
@<TRIPOS>BOND
     1     1     9    1
     2     1    14    1
     3     8     2    1
     4     2    19    1
     5    11     3    1
     6     3    38    1
     7     4    14    2
     8     5    19    2
     9     6    21    2
    10     7     8    1
    11     7     9    1
    12     7    12    1
    13     7    26    1
    14     8    10    1
    15     8    27    1
    16     9    13    1
    17     9    28    1
    18    10    11    1
    19    10    29    1
    20    10    30    1
    21    11    15    1
    22    11    16    1
    23    12    14    1
    24    12    18    2
    25    13    17    2
    26    13    31    1
    27    15    32    1
    28    15    33    1
    29    15    34    1
    30    16    20    2
    31    16    35    1
    32    17    21    1
    33    17    23    1
    34    18    36    1
    35    18    37    1
    36    19    22    1
    37    20    21    1
    38    20    39    1
    39    22    24    1
    40    22    25    1
    41    22    40    1
    42    23    41    1
    43    23    42    1
    44    23    43    1
    45    24    44    1
    46    24    45    1
    47    24    46    1
    48    25    47    1
    49    25    48    1
    50    25    49    1
