@<TRIPOS>MOLECULE
IMPHY015652
 38 39 0 0 0
SMALL
GASTEIGER

@<TRIPOS>ATOM
      1 O           6.1369    3.8800    0.0000 O.2     1  UNL1       -0.2961
      2 C           3.5388   -1.6200    0.0000 C.3     1  UNL1       -0.0162
      3 C           3.5388   -2.6200    0.0000 C.3     1  UNL1       -0.0134
      4 C           4.4054   -2.1200    0.0000 C.3     1  UNL1       -0.0392
      5 C           3.5388   -0.6200    0.0000 C.3     1  UNL1       -0.0371
      6 C           2.5878   -1.3110    0.0000 C.3     1  UNL1       -0.0280
      7 C           2.5878   -2.9290    0.0000 C.2     1  UNL1       -0.0729
      8 C           2.0000   -2.1200    0.0000 C.2     1  UNL1       -0.0842
      9 C           4.4049   -0.1200    0.0000 C.3     1  UNL1       -0.0465
     10 C           2.6728   -0.1200    0.0000 C.3     1  UNL1       -0.0619
     11 C           2.2788   -3.8800    0.0000 C.3     1  UNL1       -0.0435
     12 C           4.4049    0.8800    0.0000 C.3     1  UNL1       -0.0339
     13 C           5.2709    1.3800    0.0000 C.2     1  UNL1       -0.0781
     14 C           5.2709    2.3800    0.0000 C.2     1  UNL1       -0.0152
     15 C           4.4049    2.8800    0.0000 C.3     1  UNL1       -0.0370
     16 C           6.1369    2.8800    0.0000 C.2     1  UNL1        0.1457
     17 H           3.8845   -3.3965    0.0000 H       1  UNL1        0.0351
     18 H           4.8039   -2.5949    0.0000 H       1  UNL1        0.0277
     19 H           4.8039   -1.6450    0.0000 H       1  UNL1        0.0277
     20 H           3.5388    0.0000    0.0000 H       1  UNL1        0.0304
     21 H           2.8400   -0.7445    0.0000 H       1  UNL1        0.0313
     22 H           2.0508   -1.0010    0.0000 H       1  UNL1        0.0313
     23 H           1.3800   -2.1200    0.0000 H       1  UNL1        0.0572
     24 H           4.6169   -0.7026    0.0000 H       1  UNL1        0.0271
     25 H           5.0155   -0.0123    0.0000 H       1  UNL1        0.0271
     26 H           2.9828    0.4170    0.0000 H       1  UNL1        0.0233
     27 H           2.1359    0.1900    0.0000 H       1  UNL1        0.0233
     28 H           2.3628   -0.6569    0.0000 H       1  UNL1        0.0233
     29 H           1.6891   -3.6884    0.0000 H       1  UNL1        0.0274
     30 H           2.0872   -4.4697    0.0000 H       1  UNL1        0.0274
     31 H           2.8684   -4.0716    0.0000 H       1  UNL1        0.0274
     32 H           4.1928    1.4626    0.0000 H       1  UNL1        0.0308
     33 H           3.7943    0.7724    0.0000 H       1  UNL1        0.0308
     34 H           5.8078    1.0700    0.0000 H       1  UNL1        0.0576
     35 H           4.7149    3.4170    0.0000 H       1  UNL1        0.0278
     36 H           3.8679    3.1900    0.0000 H       1  UNL1        0.0278
     37 H           4.0949    2.3431    0.0000 H       1  UNL1        0.0278
     38 H           6.6738    2.5700    0.0000 H       1  UNL1        0.1078
@<TRIPOS>BOND
     1     1    16    2
     2     2     3    1
     3     2     4    1
     4     2     5    1
     5     2     6    1
     6     3     4    1
     7     3     7    1
     8     3    17    1
     9     4    18    1
    10     4    19    1
    11     5     9    1
    12     5    10    1
    13     5    20    1
    14     6     8    1
    15     6    21    1
    16     6    22    1
    17     7     8    2
    18     7    11    1
    19     8    23    1
    20     9    12    1
    21     9    24    1
    22     9    25    1
    23    10    26    1
    24    10    27    1
    25    10    28    1
    26    11    29    1
    27    11    30    1
    28    11    31    1
    29    12    13    1
    30    12    32    1
    31    12    33    1
    32    13    14    2
    33    13    34    1
    34    14    15    1
    35    14    16    1
    36    15    35    1
    37    15    36    1
    38    15    37    1
    39    16    38    1
