@<TRIPOS>MOLECULE
IMPHY005767
 89 88 0 0 0
SMALL
GASTEIGER

@<TRIPOS>ATOM
      1 O           7.2331    0.8660    0.0000 O.3     1  UNL1       -0.3888
      2 O          10.3312    1.5000    0.0000 O.2     1  UNL1       -0.2974
      3 O           2.5369    0.0000    0.0000 O.3     1  UNL1       -0.4806
      4 O           3.4030   -1.5000    0.0000 O.2     1  UNL1       -0.2510
      5 C           7.7331    0.0000    0.0000 C.3     1  UNL1        0.0637
      6 C           8.5991    0.5000    0.0000 C.3     1  UNL1       -0.0176
      7 C           6.8671   -0.5000    0.0000 C.3     1  UNL1       -0.0242
      8 C           9.4651    0.0000    0.0000 C.3     1  UNL1        0.0084
      9 C          17.2594    0.5000    0.0000 C.3     1  UNL1       -0.0531
     10 C          16.3933    0.0000    0.0000 C.3     1  UNL1       -0.0531
     11 C          18.1254    0.0000    0.0000 C.3     1  UNL1       -0.0531
     12 C           6.0010    0.0000    0.0000 C.3     1  UNL1       -0.0500
     13 C          15.5273    0.5000    0.0000 C.3     1  UNL1       -0.0531
     14 C          18.9914    0.5000    0.0000 C.3     1  UNL1       -0.0531
     15 C          14.6613    0.0000    0.0000 C.3     1  UNL1       -0.0531
     16 C          19.8574    0.0000    0.0000 C.3     1  UNL1       -0.0531
     17 C          13.7953    0.5000    0.0000 C.3     1  UNL1       -0.0530
     18 C          20.7235    0.5000    0.0000 C.3     1  UNL1       -0.0531
     19 C          12.9292    0.0000    0.0000 C.3     1  UNL1       -0.0527
     20 C           8.2331   -0.8660    0.0000 C.3     1  UNL1       -0.0361
     21 C          12.0632    0.5000    0.0000 C.3     1  UNL1       -0.0464
     22 C          21.5895    0.0000    0.0000 C.3     1  UNL1       -0.0531
     23 C          11.1972    0.0000    0.0000 C.3     1  UNL1        0.0058
     24 C          22.4555    0.5000    0.0000 C.3     1  UNL1       -0.0531
     25 C          10.3312    0.5000    0.0000 C.2     1  UNL1        0.1335
     26 C           5.1350   -0.5000    0.0000 C.3     1  UNL1       -0.0429
     27 C          23.3215    0.0000    0.0000 C.3     1  UNL1       -0.0531
     28 C          24.1876    0.5000    0.0000 C.3     1  UNL1       -0.0531
     29 C           4.2690    0.0000    0.0000 C.3     1  UNL1        0.0448
     30 C          25.0536    0.0000    0.0000 C.3     1  UNL1       -0.0533
     31 C          25.9196    0.5000    0.0000 C.3     1  UNL1       -0.0559
     32 C           3.4030   -0.5000    0.0000 C.2     1  UNL1        0.3047
     33 C          26.7856    0.0000    0.0000 C.3     1  UNL1       -0.0653
     34 H           8.9976    0.9749    0.0000 H       1  UNL1        0.0297
     35 H           8.2006    0.9749    0.0000 H       1  UNL1        0.0297
     36 H           6.4685   -0.9749    0.0000 H       1  UNL1        0.0293
     37 H           7.2656   -0.9749    0.0000 H       1  UNL1        0.0293
     38 H           9.0666   -0.4749    0.0000 H       1  UNL1        0.0342
     39 H           9.8637   -0.4749    0.0000 H       1  UNL1        0.0342
     40 H          17.6579    0.9749    0.0000 H       1  UNL1        0.0265
     41 H          16.8608    0.9749    0.0000 H       1  UNL1        0.0265
     42 H          15.9948   -0.4749    0.0000 H       1  UNL1        0.0265
     43 H          16.7919   -0.4749    0.0000 H       1  UNL1        0.0265
     44 H          17.7269   -0.4749    0.0000 H       1  UNL1        0.0265
     45 H          18.5239   -0.4749    0.0000 H       1  UNL1        0.0265
     46 H           6.3996    0.4749    0.0000 H       1  UNL1        0.0266
     47 H           5.6025    0.4749    0.0000 H       1  UNL1        0.0266
     48 H          15.9258    0.9749    0.0000 H       1  UNL1        0.0265
     49 H          15.1288    0.9749    0.0000 H       1  UNL1        0.0265
     50 H          19.3899    0.9749    0.0000 H       1  UNL1        0.0265
     51 H          18.5929    0.9749    0.0000 H       1  UNL1        0.0265
     52 H          14.2628   -0.4749    0.0000 H       1  UNL1        0.0265
     53 H          15.0598   -0.4749    0.0000 H       1  UNL1        0.0265
     54 H          19.4589   -0.4749    0.0000 H       1  UNL1        0.0265
     55 H          20.2560   -0.4749    0.0000 H       1  UNL1        0.0265
     56 H          14.1938    0.9749    0.0000 H       1  UNL1        0.0265
     57 H          13.3967    0.9749    0.0000 H       1  UNL1        0.0265
     58 H          21.1220    0.9749    0.0000 H       1  UNL1        0.0265
     59 H          20.3249    0.9749    0.0000 H       1  UNL1        0.0265
     60 H          12.5307   -0.4749    0.0000 H       1  UNL1        0.0265
     61 H          13.3278   -0.4749    0.0000 H       1  UNL1        0.0265
     62 H           7.6962   -1.1760    0.0000 H       1  UNL1        0.0257
     63 H           8.5431   -1.4030    0.0000 H       1  UNL1        0.0257
     64 H           8.7700   -0.5560    0.0000 H       1  UNL1        0.0257
     65 H          12.4617    0.9749    0.0000 H       1  UNL1        0.0269
     66 H          11.6647    0.9749    0.0000 H       1  UNL1        0.0269
     67 H          21.1910   -0.4749    0.0000 H       1  UNL1        0.0265
     68 H          21.9880   -0.4749    0.0000 H       1  UNL1        0.0265
     69 H          10.7987   -0.4749    0.0000 H       1  UNL1        0.0342
     70 H          11.5957   -0.4749    0.0000 H       1  UNL1        0.0342
     71 H          22.8540    0.9749    0.0000 H       1  UNL1        0.0265
     72 H          22.0570    0.9749    0.0000 H       1  UNL1        0.0265
     73 H           4.7365   -0.9749    0.0000 H       1  UNL1        0.0270
     74 H           5.5335   -0.9749    0.0000 H       1  UNL1        0.0270
     75 H          22.9230   -0.4749    0.0000 H       1  UNL1        0.0265
     76 H          23.7201   -0.4749    0.0000 H       1  UNL1        0.0265
     77 H           7.5431    1.4030    0.0000 H       1  UNL1        0.2101
     78 H          24.5861    0.9749    0.0000 H       1  UNL1        0.0265
     79 H          23.7890    0.9749    0.0000 H       1  UNL1        0.0265
     80 H           4.6675    0.4749    0.0000 H       1  UNL1        0.0377
     81 H           3.8705    0.4749    0.0000 H       1  UNL1        0.0377
     82 H          24.6551   -0.4749    0.0000 H       1  UNL1        0.0265
     83 H          25.4521   -0.4749    0.0000 H       1  UNL1        0.0265
     84 H          26.3182    0.9749    0.0000 H       1  UNL1        0.0263
     85 H          25.5211    0.9749    0.0000 H       1  UNL1        0.0263
     86 H          26.4756   -0.5369    0.0000 H       1  UNL1        0.0230
     87 H          27.3226   -0.3100    0.0000 H       1  UNL1        0.0230
     88 H          27.0956    0.5369    0.0000 H       1  UNL1        0.0230
     89 H           2.0000   -0.3100    0.0000 H       1  UNL1        0.2951
@<TRIPOS>BOND
     1     1     5    1
     2     1    77    1
     3     2    25    2
     4     3    32    1
     5     3    89    1
     6     4    32    2
     7     5     6    1
     8     5     7    1
     9     5    20    1
    10     6     8    1
    11     6    34    1
    12     6    35    1
    13     7    12    1
    14     7    36    1
    15     7    37    1
    16     8    25    1
    17     8    38    1
    18     8    39    1
    19     9    10    1
    20     9    11    1
    21     9    40    1
    22     9    41    1
    23    10    13    1
    24    10    42    1
    25    10    43    1
    26    11    14    1
    27    11    44    1
    28    11    45    1
    29    12    26    1
    30    12    46    1
    31    12    47    1
    32    13    15    1
    33    13    48    1
    34    13    49    1
    35    14    16    1
    36    14    50    1
    37    14    51    1
    38    15    17    1
    39    15    52    1
    40    15    53    1
    41    16    18    1
    42    16    54    1
    43    16    55    1
    44    17    19    1
    45    17    56    1
    46    17    57    1
    47    18    22    1
    48    18    58    1
    49    18    59    1
    50    19    21    1
    51    19    60    1
    52    19    61    1
    53    20    62    1
    54    20    63    1
    55    20    64    1
    56    21    23    1
    57    21    65    1
    58    21    66    1
    59    22    24    1
    60    22    67    1
    61    22    68    1
    62    23    25    1
    63    23    69    1
    64    23    70    1
    65    24    27    1
    66    24    71    1
    67    24    72    1
    68    26    29    1
    69    26    73    1
    70    26    74    1
    71    27    28    1
    72    27    75    1
    73    27    76    1
    74    28    30    1
    75    28    78    1
    76    28    79    1
    77    29    32    1
    78    29    80    1
    79    29    81    1
    80    30    31    1
    81    30    82    1
    82    30    83    1
    83    31    33    1
    84    31    84    1
    85    31    85    1
    86    33    86    1
    87    33    87    1
    88    33    88    1
