@<TRIPOS>MOLECULE
IMPHY012304
 35 36 0 0 0
SMALL
GASTEIGER

@<TRIPOS>ATOM
      1 O           3.7310   -1.9068    0.0000 O.3     1  UNL1       -0.4645
      2 O           2.0000   -1.9672    0.0000 O.2     1  UNL1       -0.2512
      3 C           7.1292    1.4964    0.0000 C.3     1  UNL1       -0.0253
      4 C           5.9891    2.4535    0.0000 C.3     1  UNL1       -0.0314
      5 C           5.7303    1.4876    0.0000 C.3     1  UNL1       -0.0141
      6 C           5.2525    3.4361    0.0000 C.3     1  UNL1       -0.0424
      7 C           3.9558    2.1424    0.0000 C.3     1  UNL1       -0.0311
      8 C           4.5092    0.6219    0.0000 C.2     1  UNL1       -0.0666
      9 C           7.6292    0.6304    0.0000 C.3     1  UNL1       -0.0590
     10 C           7.9952    1.9964    0.0000 C.3     1  UNL1       -0.0590
     11 C           3.6802    1.1811    0.0000 C.2     1  UNL1       -0.0841
     12 C           4.5441   -0.3775    0.0000 C.3     1  UNL1        0.0030
     13 C           3.6961   -0.9074    0.0000 C.3     1  UNL1        0.0961
     14 C           2.8830   -2.4367    0.0000 C.2     1  UNL1        0.3040
     15 C           2.9178   -3.4361    0.0000 C.3     1  UNL1        0.0332
     16 H           6.4394    2.8797    0.0000 H       1  UNL1        0.0309
     17 H           5.9203    0.8974    0.0000 H       1  UNL1        0.0351
     18 H           5.5703    3.9685    0.0000 H       1  UNL1        0.0274
     19 H           4.6393    3.5281    0.0000 H       1  UNL1        0.0274
     20 H           3.9508    2.7623    0.0000 H       1  UNL1        0.0310
     21 H           3.3415    2.2262    0.0000 H       1  UNL1        0.0310
     22 H           7.0923    0.3204    0.0000 H       1  UNL1        0.0235
     23 H           7.9392    0.0934    0.0000 H       1  UNL1        0.0235
     24 H           8.1661    0.9404    0.0000 H       1  UNL1        0.0235
     25 H           8.3052    1.4594    0.0000 H       1  UNL1        0.0235
     26 H           8.5322    2.3064    0.0000 H       1  UNL1        0.0235
     27 H           7.6852    2.5333    0.0000 H       1  UNL1        0.0235
     28 H           3.0976    0.9690    0.0000 H       1  UNL1        0.0572
     29 H           4.7764   -0.9523    0.0000 H       1  UNL1        0.0343
     30 H           5.1506   -0.2486    0.0000 H       1  UNL1        0.0343
     31 H           3.4638   -0.3326    0.0000 H       1  UNL1        0.0700
     32 H           3.0896   -1.0363    0.0000 H       1  UNL1        0.0700
     33 H           2.2982   -3.4577    0.0000 H       1  UNL1        0.0342
     34 H           2.9395   -4.0557    0.0000 H       1  UNL1        0.0342
     35 H           3.5375   -3.4145    0.0000 H       1  UNL1        0.0342
@<TRIPOS>BOND
     1     1    13    1
     2     1    14    1
     3     2    14    2
     4     3     4    1
     5     3     5    1
     6     3     9    1
     7     3    10    1
     8     4     6    1
     9     4     7    1
    10     4    16    1
    11     5     6    1
    12     5     8    1
    13     5    17    1
    14     6    18    1
    15     6    19    1
    16     7    11    1
    17     7    20    1
    18     7    21    1
    19     8    11    2
    20     8    12    1
    21     9    22    1
    22     9    23    1
    23     9    24    1
    24    10    25    1
    25    10    26    1
    26    10    27    1
    27    11    28    1
    28    12    13    1
    29    12    29    1
    30    12    30    1
    31    13    31    1
    32    13    32    1
    33    14    15    1
    34    15    33    1
    35    15    34    1
    36    15    35    1
