@<TRIPOS>MOLECULE
IMPHY005563
 56 55 0 0 0
SMALL
GASTEIGER

@<TRIPOS>ATOM
      1 O           2.5369    0.4400    0.0000 O.3     1  UNL1       -0.4806
      2 O           3.4030   -1.0600    0.0000 O.2     1  UNL1       -0.2510
      3 C           6.8671   -0.0600    0.0000 C.3     1  UNL1       -0.0528
      4 C           6.0010    0.4400    0.0000 C.3     1  UNL1       -0.0525
      5 C           7.7331    0.4400    0.0000 C.3     1  UNL1       -0.0496
      6 C           5.1350   -0.0600    0.0000 C.3     1  UNL1       -0.0430
      7 C           8.5991   -0.0600    0.0000 C.3     1  UNL1       -0.0348
      8 C           4.2690    0.4400    0.0000 C.3     1  UNL1        0.0448
      9 C          17.2594   -0.0600    0.0000 C.3     1  UNL1       -0.0496
     10 C          18.1254    0.4400    0.0000 C.3     1  UNL1       -0.0530
     11 C          16.3933    0.4400    0.0000 C.3     1  UNL1       -0.0348
     12 C          18.9914   -0.0600    0.0000 C.3     1  UNL1       -0.0559
     13 C           9.4651    0.4400    0.0000 C.2     1  UNL1       -0.0876
     14 C          10.3312   -0.0600    0.0000 C.2     1  UNL1       -0.0842
     15 C          15.5273   -0.0600    0.0000 C.2     1  UNL1       -0.0876
     16 C           3.4030   -0.0600    0.0000 C.2     1  UNL1        0.3047
     17 C          19.8574    0.4400    0.0000 C.3     1  UNL1       -0.0653
     18 C          11.1972    0.4400    0.0000 C.3     1  UNL1       -0.0165
     19 C          14.6613    0.4400    0.0000 C.2     1  UNL1       -0.0842
     20 C          13.7953   -0.0600    0.0000 C.3     1  UNL1       -0.0165
     21 C          12.0632   -0.0600    0.0000 C.2     1  UNL1       -0.0839
     22 C          12.9292    0.4400    0.0000 C.2     1  UNL1       -0.0839
     23 H           6.4685   -0.5349    0.0000 H       1  UNL1        0.0265
     24 H           7.2656   -0.5349    0.0000 H       1  UNL1        0.0265
     25 H           6.3996    0.9149    0.0000 H       1  UNL1        0.0265
     26 H           5.6025    0.9149    0.0000 H       1  UNL1        0.0265
     27 H           8.1316    0.9149    0.0000 H       1  UNL1        0.0268
     28 H           7.3346    0.9149    0.0000 H       1  UNL1        0.0268
     29 H           4.7365   -0.5349    0.0000 H       1  UNL1        0.0270
     30 H           5.5335   -0.5349    0.0000 H       1  UNL1        0.0270
     31 H           8.2006   -0.5349    0.0000 H       1  UNL1        0.0307
     32 H           8.9976   -0.5349    0.0000 H       1  UNL1        0.0307
     33 H           4.6675    0.9149    0.0000 H       1  UNL1        0.0377
     34 H           3.8705    0.9149    0.0000 H       1  UNL1        0.0377
     35 H          16.8608   -0.5349    0.0000 H       1  UNL1        0.0268
     36 H          17.6579   -0.5349    0.0000 H       1  UNL1        0.0268
     37 H          18.5239    0.9149    0.0000 H       1  UNL1        0.0265
     38 H          17.7269    0.9149    0.0000 H       1  UNL1        0.0265
     39 H          16.7919    0.9149    0.0000 H       1  UNL1        0.0307
     40 H          15.9948    0.9149    0.0000 H       1  UNL1        0.0307
     41 H          18.5929   -0.5349    0.0000 H       1  UNL1        0.0263
     42 H          19.3899   -0.5349    0.0000 H       1  UNL1        0.0263
     43 H           9.4651    1.0600    0.0000 H       1  UNL1        0.0569
     44 H          15.5273   -0.6800    0.0000 H       1  UNL1        0.0569
     45 H          10.3312   -0.6800    0.0000 H       1  UNL1        0.0572
     46 H          20.1674   -0.0969    0.0000 H       1  UNL1        0.0230
     47 H          20.3944    0.7500    0.0000 H       1  UNL1        0.0230
     48 H          19.5474    0.9769    0.0000 H       1  UNL1        0.0230
     49 H          11.5957    0.9149    0.0000 H       1  UNL1        0.0350
     50 H          10.7987    0.9149    0.0000 H       1  UNL1        0.0350
     51 H          14.6613    1.0600    0.0000 H       1  UNL1        0.0572
     52 H          13.3967   -0.5349    0.0000 H       1  UNL1        0.0350
     53 H          14.1938   -0.5349    0.0000 H       1  UNL1        0.0350
     54 H          12.0632   -0.6800    0.0000 H       1  UNL1        0.0572
     55 H          12.9292    1.0600    0.0000 H       1  UNL1        0.0572
     56 H           2.0000    0.1300    0.0000 H       1  UNL1        0.2951
@<TRIPOS>BOND
     1     1    16    1
     2     1    56    1
     3     2    16    2
     4     3     4    1
     5     3     5    1
     6     3    23    1
     7     3    24    1
     8     4     6    1
     9     4    25    1
    10     4    26    1
    11     5     7    1
    12     5    27    1
    13     5    28    1
    14     6     8    1
    15     6    29    1
    16     6    30    1
    17     7    13    1
    18     7    31    1
    19     7    32    1
    20     8    16    1
    21     8    33    1
    22     8    34    1
    23     9    10    1
    24     9    11    1
    25     9    35    1
    26     9    36    1
    27    10    12    1
    28    10    37    1
    29    10    38    1
    30    11    15    1
    31    11    39    1
    32    11    40    1
    33    12    17    1
    34    12    41    1
    35    12    42    1
    36    13    14    2
    37    13    43    1
    38    14    18    1
    39    14    45    1
    40    15    19    2
    41    15    44    1
    42    17    46    1
    43    17    47    1
    44    17    48    1
    45    18    21    1
    46    18    49    1
    47    18    50    1
    48    19    20    1
    49    19    51    1
    50    20    22    1
    51    20    52    1
    52    20    53    1
    53    21    22    2
    54    21    54    1
    55    22    55    1
