@<TRIPOS>MOLECULE
IMPHY002331
 27 31 0 0 0
SMALL
GASTEIGER

@<TRIPOS>ATOM
      1 C           2.9679    4.3118    0.0000 C.3     1  UNL1        0.1243
      2 C           2.4253    3.3753    0.0000 C.ar    1  UNL1       -0.0027
      3 C           3.5317    3.5587    0.0000 C.2     1  UNL1        0.1926
      4 C           3.5085    5.0784    0.0000 C.3     1  UNL1        0.0529
      5 N           2.4272    5.2502    0.0000 N.3     1  UNL1       -0.2640
      6 C           1.3420    3.3753    0.0000 C.ar    1  UNL1       -0.0199
      7 C           2.9679    2.4369    0.0000 C.ar    1  UNL1        0.0371
      8 C           4.4199    3.8600    0.0000 C.ar    1  UNL1        0.0695
      9 O           3.3714    2.9505    0.0000 O.2     1  UNL1       -0.2895
     10 C           4.4064    4.8003    0.0000 C.ar    1  UNL1       -0.0142
     11 C           1.3459    5.2502    0.0000 C.3     1  UNL1        0.0774
     12 C           2.7941    6.0960    0.0000 C.3     1  UNL1        0.0902
     13 C           0.7975    2.4369    0.0000 C.ar    1  UNL1        0.0356
     14 C           0.8013    4.3137    0.0000 C.3     1  UNL1        0.0435
     15 C           2.4253    1.4984    0.0000 C.ar    1  UNL1        0.1721
     16 C           5.2367    3.4023    0.0000 C.ar    1  UNL1        0.1788
     17 C           5.2136    5.2811    0.0000 C.ar    1  UNL1       -0.0008
     18 C           1.3420    1.4984    0.0000 C.ar    1  UNL1        0.1721
     19 O           2.7651    0.4673    0.0000 O.3     1  UNL1       -0.4684
     20 C           6.0477    3.8831    0.0000 C.ar    1  UNL1        0.1765
     21 O           5.4472    2.4851    0.0000 O.3     1  UNL1       -0.4345
     22 C           6.0323    4.8196    0.0000 C.ar    1  UNL1        0.0399
     23 O           1.0080    0.4654    0.0000 O.3     1  UNL1       -0.4684
     24 C           3.7982    0.1216    0.0000 C.3     1  UNL1        0.2526
     25 O           6.7583    3.2633    0.0000 O.3     1  UNL1       -0.4346
     26 C           6.3856    2.3982    0.0000 C.3     1  UNL1        0.4294
     27 C           0.0000    0.0000    0.0000 C.3     1  UNL1        0.2526
@<TRIPOS>BOND
     1     1     2    1
     2     1     3    1
     3     1     4    1
     4     1     5    1
     5     2     6   ar
     6     2     7   ar
     7     3     8    1
     8     3     9    2
     9     4    10    1
    10     5    11    1
    11     5    12    1
    12     6    13   ar
    13     6    14    1
    14     7    15   ar
    15     8    10   ar
    16     8    16   ar
    17    10    17   ar
    18    11    14    1
    19    13    18   ar
    20    15    18   ar
    21    15    19    1
    22    16    20   ar
    23    16    21    1
    24    17    22   ar
    25    18    23    1
    26    19    24    1
    27    20    22   ar
    28    20    25    1
    29    21    26    1
    30    23    27    1
    31    25    26    1
