@<TRIPOS>MOLECULE
IMPHY003046
 65 66 0 0 0
SMALL
GASTEIGER

@<TRIPOS>ATOM
      1 O           4.2690   -3.5000    0.0000 O.3     1  UNL1       -0.3405
      2 O           8.5991    4.0000    0.0000 O.3     1  UNL1       -0.3405
      3 O           6.0010   -3.5000    0.0000 O.3     1  UNL1       -0.3486
      4 O           9.4651    2.5000    0.0000 O.3     1  UNL1       -0.3486
      5 O           4.2690   -6.5000    0.0000 O.3     1  UNL1       -0.3864
      6 O          11.1972    5.5000    0.0000 O.3     1  UNL1       -0.3864
      7 O           2.5369   -5.5000    0.0000 O.3     1  UNL1       -0.3865
      8 O           9.4651    6.5000    0.0000 O.3     1  UNL1       -0.3865
      9 O           6.0010   -5.5000    0.0000 O.3     1  UNL1       -0.3841
     10 O          11.1972    3.5000    0.0000 O.3     1  UNL1       -0.3841
     11 O           2.5369   -2.5000    0.0000 O.3     1  UNL1       -0.3924
     12 O           6.8671    5.0000    0.0000 O.3     1  UNL1       -0.3924
     13 O           7.7331   -0.5000    0.0000 O.3     1  UNL1       -0.3796
     14 C           4.2690   -5.5000    0.0000 C.3     1  UNL1        0.1141
     15 C          10.3312    5.0000    0.0000 C.3     1  UNL1        0.1141
     16 C           3.4030   -5.0000    0.0000 C.3     1  UNL1        0.1119
     17 C           9.4651    5.5000    0.0000 C.3     1  UNL1        0.1119
     18 C           5.1350   -5.0000    0.0000 C.3     1  UNL1        0.1341
     19 C          10.3312    4.0000    0.0000 C.3     1  UNL1        0.1341
     20 C           3.4030   -4.0000    0.0000 C.3     1  UNL1        0.1130
     21 C           8.5991    5.0000    0.0000 C.3     1  UNL1        0.1130
     22 C           5.1350   -4.0000    0.0000 C.3     1  UNL1        0.1879
     23 C           9.4651    3.5000    0.0000 C.3     1  UNL1        0.1879
     24 C           2.5369   -3.5000    0.0000 C.3     1  UNL1        0.0730
     25 C           7.7331    5.5000    0.0000 C.3     1  UNL1        0.0730
     26 C           6.0010   -2.5000    0.0000 C.3     1  UNL1        0.0528
     27 C           8.5991    2.0000    0.0000 C.3     1  UNL1        0.0528
     28 C           6.8671   -2.0000    0.0000 C.3     1  UNL1       -0.0058
     29 C           8.5991    1.0000    0.0000 C.3     1  UNL1       -0.0058
     30 C           6.8671   -1.0000    0.0000 C.3     1  UNL1        0.0497
     31 C           7.7331    0.5000    0.0000 C.3     1  UNL1        0.0497
     32 H           4.8059   -5.8100    0.0000 H       1  UNL1        0.0648
     33 H          10.8681    4.6900    0.0000 H       1  UNL1        0.0648
     34 H           3.4030   -5.6200    0.0000 H       1  UNL1        0.0647
     35 H          10.0021    5.8100    0.0000 H       1  UNL1        0.0647
     36 H           5.6720   -4.6900    0.0000 H       1  UNL1        0.0671
     37 H          10.3312    3.3800    0.0000 H       1  UNL1        0.0671
     38 H           3.4030   -3.3800    0.0000 H       1  UNL1        0.0647
     39 H           8.0622    4.6900    0.0000 H       1  UNL1        0.0647
     40 H           5.1350   -3.3800    0.0000 H       1  UNL1        0.0937
     41 H           8.9282    3.1900    0.0000 H       1  UNL1        0.0937
     42 H           1.9264   -3.3923    0.0000 H       1  UNL1        0.0584
     43 H           2.3249   -4.0826    0.0000 H       1  UNL1        0.0584
     44 H           8.1316    5.9750    0.0000 H       1  UNL1        0.0584
     45 H           7.3346    5.9750    0.0000 H       1  UNL1        0.0584
     46 H          11.1972    6.1200    0.0000 H       1  UNL1        0.2100
     47 H           3.7320   -6.8100    0.0000 H       1  UNL1        0.2100
     48 H           2.0000   -5.1900    0.0000 H       1  UNL1        0.2100
     49 H           8.9282    6.8100    0.0000 H       1  UNL1        0.2100
     50 H           6.5380   -5.1900    0.0000 H       1  UNL1        0.2101
     51 H          11.1972    2.8800    0.0000 H       1  UNL1        0.2101
     52 H           8.3871    2.5826    0.0000 H       1  UNL1        0.0561
     53 H           7.9885    1.8923    0.0000 H       1  UNL1        0.0561
     54 H           5.7890   -1.9174    0.0000 H       1  UNL1        0.0561
     55 H           5.3905   -2.6077    0.0000 H       1  UNL1        0.0561
     56 H           7.0791   -2.5826    0.0000 H       1  UNL1        0.0310
     57 H           7.4776   -1.8923    0.0000 H       1  UNL1        0.0310
     58 H           8.8112    0.4174    0.0000 H       1  UNL1        0.0310
     59 H           9.2097    1.1077    0.0000 H       1  UNL1        0.0310
     60 H           6.6550   -0.4174    0.0000 H       1  UNL1        0.0560
     61 H           6.2565   -1.1077    0.0000 H       1  UNL1        0.0560
     62 H           7.5210    1.0826    0.0000 H       1  UNL1        0.0560
     63 H           7.1225    0.3923    0.0000 H       1  UNL1        0.0560
     64 H           2.0000   -2.1900    0.0000 H       1  UNL1        0.2095
     65 H           6.3301    5.3100    0.0000 H       1  UNL1        0.2095
@<TRIPOS>BOND
     1     1    20    1
     2     1    22    1
     3     2    21    1
     4     2    23    1
     5     3    22    1
     6     3    26    1
     7     4    23    1
     8     4    27    1
     9     5    14    1
    10     5    47    1
    11     6    15    1
    12     6    46    1
    13     7    16    1
    14     7    48    1
    15     8    17    1
    16     8    49    1
    17     9    18    1
    18     9    50    1
    19    10    19    1
    20    10    51    1
    21    11    24    1
    22    11    64    1
    23    12    25    1
    24    12    65    1
    25    13    30    1
    26    13    31    1
    27    14    16    1
    28    14    18    1
    29    14    32    1
    30    15    17    1
    31    15    19    1
    32    15    33    1
    33    16    20    1
    34    16    34    1
    35    17    21    1
    36    17    35    1
    37    18    22    1
    38    18    36    1
    39    19    23    1
    40    19    37    1
    41    20    24    1
    42    20    38    1
    43    21    25    1
    44    21    39    1
    45    22    40    1
    46    23    41    1
    47    24    42    1
    48    24    43    1
    49    25    44    1
    50    25    45    1
    51    26    28    1
    52    26    54    1
    53    26    55    1
    54    27    29    1
    55    27    52    1
    56    27    53    1
    57    28    30    1
    58    28    56    1
    59    28    57    1
    60    29    31    1
    61    29    58    1
    62    29    59    1
    63    30    60    1
    64    30    61    1
    65    31    62    1
    66    31    63    1
