@<TRIPOS>MOLECULE
IMPHY005865
 72 76 0 0 0
SMALL
GASTEIGER

@<TRIPOS>ATOM
      1 O           8.5991   -1.8696    0.0000 O.3     1  UNL1       -0.3313
      2 O           6.0010   -2.3696    0.0000 O.3     1  UNL1       -0.3461
      3 O           4.2690   -2.3696    0.0000 O.3     1  UNL1       -0.3461
      4 O           6.8671   -3.8696    0.0000 O.3     1  UNL1       -0.3865
      5 O           8.5991   -4.8696    0.0000 O.3     1  UNL1       -0.3864
      6 O          10.3312   -1.8696    0.0000 O.3     1  UNL1       -0.4606
      7 O          10.3312   -3.8696    0.0000 O.3     1  UNL1       -0.3829
      8 O           6.0010   -0.3696    0.0000 O.3     1  UNL1       -0.3841
      9 O           4.2690    0.6304    0.0000 O.3     1  UNL1       -0.3864
     10 O           2.5369   -0.3696    0.0000 O.3     1  UNL1       -0.3869
     11 O          12.0871    1.1930    0.0000 O.2     1  UNL1       -0.4544
     12 O           8.5849    1.2096    0.0000 O.3     1  UNL1       -0.5058
     13 O           9.4948    2.7030    0.0000 O.2     1  UNL1       -0.2869
     14 O          15.5628    4.1796    0.0000 O.3     1  UNL1       -0.4915
     15 O          15.5551    2.1796    0.0000 O.3     1  UNL1       -0.5033
     16 C           7.7331   -2.3696    0.0000 C.3     1  UNL1        0.1144
     17 C           7.7331   -3.3696    0.0000 C.3     1  UNL1        0.1120
     18 C           8.5991   -3.8696    0.0000 C.3     1  UNL1        0.1152
     19 C           9.4651   -3.3696    0.0000 C.3     1  UNL1        0.1454
     20 C           9.4651   -2.3696    0.0000 C.3     1  UNL1        0.2308
     21 C           6.8671   -1.8696    0.0000 C.3     1  UNL1        0.0796
     22 C           5.1350   -1.8696    0.0000 C.3     1  UNL1        0.1876
     23 C           5.1350   -0.8696    0.0000 C.3     1  UNL1        0.1341
     24 C           4.2690   -0.3696    0.0000 C.3     1  UNL1        0.1137
     25 C           3.4030   -0.8696    0.0000 C.3     1  UNL1        0.1069
     26 C           3.4030   -1.8696    0.0000 C.3     1  UNL1        0.0792
     27 C          10.3312   -0.8696    0.0000 C.ar    1  UNL1        0.1310
     28 C          11.2312   -0.3453    0.0000 C.ar    1  UNL1        0.0235
     29 C           9.4311   -0.3453    0.0000 C.ar    1  UNL1        0.0226
     30 C          11.2192    0.6963    0.0000 C.ar    1  UNL1        0.1462
     31 C           9.4431    0.6963    0.0000 C.ar    1  UNL1        0.1347
     32 C          10.3551    1.1996    0.0000 C.ar    1  UNL1        0.1055
     33 C          10.3589    2.1996    0.0000 C.ar    1  UNL1        0.1966
     34 C          12.0910    2.1929    0.0000 C.ar    1  UNL1        0.1393
     35 C          11.2269    2.6963    0.0000 C.ar    1  UNL1        0.0288
     36 C          12.9589    2.6896    0.0000 C.ar    1  UNL1        0.0211
     37 C          13.8230    2.1863    0.0000 C.ar    1  UNL1       -0.0059
     38 C          12.9628    3.6896    0.0000 C.ar    1  UNL1       -0.0474
     39 C          14.6910    2.6829    0.0000 C.ar    1  UNL1        0.1591
     40 C          13.8307    4.1862    0.0000 C.ar    1  UNL1       -0.0156
     41 C          14.6948    3.6829    0.0000 C.ar    1  UNL1        0.1613
     42 C          15.5666    5.1796    0.0000 C.3     1  UNL1        0.0790
     43 H           7.7331   -1.7496    0.0000 H       1  UNL1        0.0647
     44 H           7.7331   -3.9896    0.0000 H       1  UNL1        0.0647
     45 H           9.1360   -4.1796    0.0000 H       1  UNL1        0.0648
     46 H          10.0021   -3.0596    0.0000 H       1  UNL1        0.0683
     47 H           9.4651   -1.7496    0.0000 H       1  UNL1        0.1084
     48 H           7.2656   -1.3946    0.0000 H       1  UNL1        0.0587
     49 H           6.4685   -1.3946    0.0000 H       1  UNL1        0.0587
     50 H           5.6720   -1.5596    0.0000 H       1  UNL1        0.0937
     51 H           5.1350   -0.2496    0.0000 H       1  UNL1        0.0671
     52 H           3.7320   -0.0596    0.0000 H       1  UNL1        0.0647
     53 H           3.9650   -0.2496    0.0000 H       1  UNL1        0.0643
     54 H           2.7924   -1.7619    0.0000 H       1  UNL1        0.0587
     55 H           3.1909   -2.4522    0.0000 H       1  UNL1        0.0587
     56 H           6.8671   -4.4896    0.0000 H       1  UNL1        0.2100
     57 H           8.0622   -5.1796    0.0000 H       1  UNL1        0.2100
     58 H          10.3312   -4.4896    0.0000 H       1  UNL1        0.2102
     59 H           6.0010    0.2504    0.0000 H       1  UNL1        0.2101
     60 H           3.7320    0.9404    0.0000 H       1  UNL1        0.2100
     61 H           2.0000   -0.6796    0.0000 H       1  UNL1        0.2100
     62 H          11.7705   -0.6511    0.0000 H       1  UNL1        0.0691
     63 H           8.8918   -0.6511    0.0000 H       1  UNL1        0.0691
     64 H          11.2293    3.3163    0.0000 H       1  UNL1        0.0693
     65 H           8.0433    0.9079    0.0000 H       1  UNL1        0.2922
     66 H          13.8206    1.5663    0.0000 H       1  UNL1        0.0662
     67 H          12.4270    4.0017    0.0000 H       1  UNL1        0.0626
     68 H          13.8331    4.8062    0.0000 H       1  UNL1        0.0655
     69 H          16.0932    2.4875    0.0000 H       1  UNL1        0.2923
     70 H          16.1866    5.1772    0.0000 H       1  UNL1        0.0660
     71 H          15.5690    5.7996    0.0000 H       1  UNL1        0.0660
     72 H          14.9466    5.1819    0.0000 H       1  UNL1        0.0660
@<TRIPOS>BOND
     1     1    16    1
     2     1    20    1
     3     2    21    1
     4     2    22    1
     5     3    22    1
     6     3    26    1
     7    17     4    1
     8     4    56    1
     9    18     5    1
    10     5    57    1
    11     6    20    1
    12     6    27    1
    13    19     7    1
    14     7    58    1
    15    23     8    1
    16     8    59    1
    17    24     9    1
    18     9    60    1
    19    25    10    1
    20    10    61    1
    21    11    30   ar
    22    11    34   ar
    23    12    31    1
    24    12    65    1
    25    13    33    2
    26    14    41    1
    27    14    42    1
    28    15    39    1
    29    15    69    1
    30    16    17    1
    31    16    21    1
    32    16    43    1
    33    17    18    1
    34    17    44    1
    35    18    19    1
    36    18    45    1
    37    19    20    1
    38    19    46    1
    39    20    47    1
    40    21    48    1
    41    21    49    1
    42    22    23    1
    43    22    50    1
    44    23    24    1
    45    23    51    1
    46    24    25    1
    47    24    52    1
    48    25    26    1
    49    25    53    1
    50    26    54    1
    51    26    55    1
    52    27    28   ar
    53    27    29   ar
    54    28    30   ar
    55    28    62    1
    56    29    31   ar
    57    29    63    1
    58    30    32   ar
    59    31    32   ar
    60    32    33   ar
    61    33    35   ar
    62    34    35   ar
    63    34    36    1
    64    35    64    1
    65    36    37   ar
    66    36    38   ar
    67    37    39   ar
    68    37    66    1
    69    38    40   ar
    70    38    67    1
    71    39    41   ar
    72    40    41   ar
    73    40    68    1
    74    42    70    1
    75    42    71    1
    76    42    72    1
