@<TRIPOS>MOLECULE
IMPHY002202
 56 60 0 0 0
SMALL
GASTEIGER

@<TRIPOS>ATOM
      1 O           6.3194   -0.7190    0.0000 O.3     1  UNL1       -0.3741
      2 O           5.0519   -2.6737    0.0000 O.3     1  UNL1       -0.3874
      3 O           7.0625   -1.3881    0.0000 O.3     1  UNL1       -0.4658
      4 O           5.9036   -2.6753    0.0000 O.2     1  UNL1       -0.2474
      5 N           2.6254   -0.4450    0.0000 N.3     1  UNL1       -0.2940
      6 N           5.7049    0.5556    0.0000 N.pl3   1  UNL1       -0.3254
      7 C           4.1652    0.0553    0.0000 C.3     1  UNL1        0.0368
      8 C           3.5397   -0.6393    0.0000 C.3     1  UNL1        0.0337
      9 C           3.8286   -1.5283    0.0000 C.3     1  UNL1        0.0342
     10 C           5.0795   -0.1390    0.0000 C.3     1  UNL1        0.0761
     11 C           5.3683   -1.0280    0.0000 C.3     1  UNL1        0.2083
     12 C           3.7801    1.0909    0.0000 C.3     1  UNL1       -0.0272
     13 C           4.7429   -1.7226    0.0000 C.3     1  UNL1        0.1066
     14 C           4.5018    1.6389    0.0000 C.ar    1  UNL1       -0.0168
     15 C           2.3366    0.4440    0.0000 C.3     1  UNL1        0.0005
     16 C           4.1376   -2.4794    0.0000 C.3     1  UNL1       -0.0428
     17 C           5.4161    1.4446    0.0000 C.ar    1  UNL1        0.0337
     18 C           3.2031   -2.2229    0.0000 C.2     1  UNL1       -0.0765
     19 C           2.0000   -1.1396    0.0000 C.3     1  UNL1        0.0175
     20 C           2.2888   -2.0286    0.0000 C.2     1  UNL1       -0.0733
     21 C           6.1115   -1.6971    0.0000 C.2     1  UNL1        0.3435
     22 C           4.2129    2.5279    0.0000 C.ar    1  UNL1       -0.0562
     23 C           6.6560    0.8646    0.0000 C.3     1  UNL1        0.0011
     24 C           3.4685   -3.2225    0.0000 C.3     1  UNL1       -0.0644
     25 C           6.0415    2.1392    0.0000 C.ar    1  UNL1       -0.0404
     26 C           4.8384    3.2225    0.0000 C.ar    1  UNL1       -0.0614
     27 C           5.7527    3.0282    0.0000 C.ar    1  UNL1       -0.0600
     28 C           7.8057   -2.0572    0.0000 C.3     1  UNL1        0.0818
     29 H           3.2771    0.1691    0.0000 H       1  UNL1        0.0481
     30 H           5.9109   -0.3158    0.0000 H       1  UNL1        0.0544
     31 H           4.3564    1.3196    0.0000 H       1  UNL1        0.0287
     32 H           3.5389    1.6621    0.0000 H       1  UNL1        0.0287
     33 H           5.3493   -1.8515    0.0000 H       1  UNL1        0.0637
     34 H           2.1034    1.0184    0.0000 H       1  UNL1        0.0427
     35 H           1.7542    0.2314    0.0000 H       1  UNL1        0.0427
     36 H           4.5193   -2.9679    0.0000 H       1  UNL1        0.0272
     37 H           4.6850   -2.1883    0.0000 H       1  UNL1        0.0272
     38 H           3.3947   -2.8126    0.0000 H       1  UNL1        0.0576
     39 H           1.6183   -0.6510    0.0000 H       1  UNL1        0.0470
     40 H           1.4526   -1.4307    0.0000 H       1  UNL1        0.0470
     41 H           1.8740   -2.4893    0.0000 H       1  UNL1        0.0582
     42 H           3.6065    2.6568    0.0000 H       1  UNL1        0.0621
     43 H           6.7342   -0.2582    0.0000 H       1  UNL1        0.2110
     44 H           6.8476    0.2750    0.0000 H       1  UNL1        0.0428
     45 H           7.2456    1.0562    0.0000 H       1  UNL1        0.0428
     46 H           6.4644    1.4543    0.0000 H       1  UNL1        0.0428
     47 H           4.6370   -3.1344    0.0000 H       1  UNL1        0.2100
     48 H           3.0077   -2.8076    0.0000 H       1  UNL1        0.0230
     49 H           3.0536   -3.6832    0.0000 H       1  UNL1        0.0230
     50 H           3.9292   -3.6374    0.0000 H       1  UNL1        0.0230
     51 H           6.6480    2.0103    0.0000 H       1  UNL1        0.0636
     52 H           4.6468    3.8122    0.0000 H       1  UNL1        0.0618
     53 H           6.1676    3.4889    0.0000 H       1  UNL1        0.0618
     54 H           7.3908   -2.5180    0.0000 H       1  UNL1        0.0661
     55 H           8.2664   -2.4721    0.0000 H       1  UNL1        0.0661
     56 H           8.2205   -1.5965    0.0000 H       1  UNL1        0.0661
@<TRIPOS>BOND
     1    11     1    1
     2     1    43    1
     3    13     2    1
     4     2    47    1
     5     3    21    1
     6     3    28    1
     7     4    21    2
     8     5     8    1
     9     5    15    1
    10     5    19    1
    11     6    10    1
    12     6    17    1
    13     6    23    1
    14     7     8    1
    15     7    10    1
    16     7    12    1
    17     7    14    1
    18     8     9    1
    19     8    29    1
    20     9    13    1
    21     9    16    1
    22     9    18    1
    23    10    11    1
    24    10    30    1
    25    11    13    1
    26    11    21    1
    27    12    15    1
    28    12    31    1
    29    12    32    1
    30    13    33    1
    31    14    17   ar
    32    14    22   ar
    33    15    34    1
    34    15    35    1
    35    16    24    1
    36    16    36    1
    37    16    37    1
    38    17    25   ar
    39    18    20    2
    40    18    38    1
    41    19    20    1
    42    19    39    1
    43    19    40    1
    44    20    41    1
    45    22    26   ar
    46    22    42    1
    47    23    44    1
    48    23    45    1
    49    23    46    1
    50    24    48    1
    51    24    49    1
    52    24    50    1
    53    25    27   ar
    54    25    51    1
    55    26    27   ar
    56    26    52    1
    57    27    53    1
    58    28    54    1
    59    28    55    1
    60    28    56    1
