@<TRIPOS>MOLECULE
IMPHY011035
 31 31 0 0 0
SMALL
GASTEIGER

@<TRIPOS>ATOM
      1 O           3.7320    0.7500    0.0000 O.3     1  UNL1       -0.4611
      2 O           5.4641    0.7500    0.0000 O.2     1  UNL1       -0.2453
      3 C           2.8660   -0.7500    0.0000 C.3     1  UNL1        0.0068
      4 C           2.8660   -1.7500    0.0000 C.ar    1  UNL1       -0.0442
      5 C           3.7320   -0.2500    0.0000 C.3     1  UNL1        0.0967
      6 C           2.0000   -2.2500    0.0000 C.ar    1  UNL1       -0.0585
      7 C           3.7320   -2.2500    0.0000 C.ar    1  UNL1       -0.0585
      8 C           2.0000   -3.2500    0.0000 C.ar    1  UNL1       -0.0615
      9 C           3.7320   -3.2500    0.0000 C.ar    1  UNL1       -0.0615
     10 C           4.5981    2.2500    0.0000 C.2     1  UNL1        0.0293
     11 C           4.5981    1.2500    0.0000 C.2     1  UNL1        0.3346
     12 C           2.8660   -3.7500    0.0000 C.ar    1  UNL1       -0.0617
     13 C           3.7320    2.7500    0.0000 C.3     1  UNL1       -0.0333
     14 C           5.4641    2.7500    0.0000 C.2     1  UNL1       -0.0774
     15 C           5.4641    3.7500    0.0000 C.3     1  UNL1       -0.0461
     16 H           2.6540   -0.1674    0.0000 H       1  UNL1        0.0346
     17 H           2.2554   -0.8577    0.0000 H       1  UNL1        0.0346
     18 H           3.9441   -0.8326    0.0000 H       1  UNL1        0.0701
     19 H           4.3426   -0.1423    0.0000 H       1  UNL1        0.0701
     20 H           1.4631   -1.9400    0.0000 H       1  UNL1        0.0620
     21 H           4.2690   -1.9400    0.0000 H       1  UNL1        0.0620
     22 H           1.4631   -3.5600    0.0000 H       1  UNL1        0.0618
     23 H           4.2690   -3.5600    0.0000 H       1  UNL1        0.0618
     24 H           2.8660   -4.3700    0.0000 H       1  UNL1        0.0618
     25 H           4.0420    3.2869    0.0000 H       1  UNL1        0.0280
     26 H           3.1951    3.0600    0.0000 H       1  UNL1        0.0280
     27 H           3.4220    2.2131    0.0000 H       1  UNL1        0.0280
     28 H           6.0010    2.4400    0.0000 H       1  UNL1        0.0574
     29 H           6.0841    3.7500    0.0000 H       1  UNL1        0.0272
     30 H           5.4641    4.3700    0.0000 H       1  UNL1        0.0272
     31 H           4.8441    3.7500    0.0000 H       1  UNL1        0.0272
@<TRIPOS>BOND
     1     1     5    1
     2     1    11    1
     3     2    11    2
     4     3     4    1
     5     3     5    1
     6     3    16    1
     7     3    17    1
     8     4     6   ar
     9     4     7   ar
    10     5    18    1
    11     5    19    1
    12     6     8   ar
    13     6    20    1
    14     7     9   ar
    15     7    21    1
    16     8    12   ar
    17     8    22    1
    18     9    12   ar
    19     9    23    1
    20    10    11    1
    21    10    13    1
    22    10    14    2
    23    12    24    1
    24    13    25    1
    25    13    26    1
    26    13    27    1
    27    14    15    1
    28    14    28    1
    29    15    29    1
    30    15    30    1
    31    15    31    1
