@<TRIPOS>MOLECULE
IMPHY000758
 27 26 0 0 0
SMALL
GASTEIGER

@<TRIPOS>ATOM
      1 O           5.1350   -1.2500    0.0000 O.3     1  UNL1       -0.3865
      2 O           6.0010    1.2500    0.0000 O.3     1  UNL1       -0.3865
      3 O           4.2690    1.2500    0.0000 O.3     1  UNL1       -0.3879
      4 O           6.8671   -1.2500    0.0000 O.3     1  UNL1       -0.3869
      5 O           8.5991   -0.2500    0.0000 O.3     1  UNL1       -0.3924
      6 N           2.5369    0.2500    0.0000 N.3     1  UNL1       -0.3276
      7 C           5.1350   -0.2500    0.0000 C.3     1  UNL1        0.1105
      8 C           6.0010    0.2500    0.0000 C.3     1  UNL1        0.1114
      9 C           4.2690    0.2500    0.0000 C.3     1  UNL1        0.0957
     10 C           6.8671   -0.2500    0.0000 C.3     1  UNL1        0.1065
     11 C           3.4030   -0.2500    0.0000 C.3     1  UNL1        0.0218
     12 C           7.7331    0.2500    0.0000 C.3     1  UNL1        0.0727
     13 H           5.6720   -0.5600    0.0000 H       1  UNL1        0.0646
     14 H           6.5380    0.5600    0.0000 H       1  UNL1        0.0647
     15 H           4.8059    0.5600    0.0000 H       1  UNL1        0.0633
     16 H           6.3301   -0.5600    0.0000 H       1  UNL1        0.0643
     17 H           3.0044   -0.7249    0.0000 H       1  UNL1        0.0448
     18 H           3.8015   -0.7249    0.0000 H       1  UNL1        0.0448
     19 H           8.1316    0.7249    0.0000 H       1  UNL1        0.0584
     20 H           7.3346    0.7249    0.0000 H       1  UNL1        0.0584
     21 H           4.5981   -1.5600    0.0000 H       1  UNL1        0.2100
     22 H           6.5380    1.5600    0.0000 H       1  UNL1        0.2100
     23 H           3.7320    1.5600    0.0000 H       1  UNL1        0.2099
     24 H           7.4040   -1.5600    0.0000 H       1  UNL1        0.2100
     25 H           2.0000   -0.0600    0.0000 H       1  UNL1        0.1183
     26 H           2.5369    0.8700    0.0000 H       1  UNL1        0.1183
     27 H           9.1360    0.0600    0.0000 H       1  UNL1        0.2095
@<TRIPOS>BOND
     1     7     1    1
     2     1    21    1
     3     8     2    1
     4     2    22    1
     5     9     3    1
     6     3    23    1
     7    10     4    1
     8     4    24    1
     9     5    12    1
    10     5    27    1
    11     6    11    1
    12     6    25    1
    13     6    26    1
    14     7     8    1
    15     7     9    1
    16     7    13    1
    17     8    10    1
    18     8    14    1
    19     9    11    1
    20     9    15    1
    21    10    12    1
    22    10    16    1
    23    11    17    1
    24    11    18    1
    25    12    19    1
    26    12    20    1
