@<TRIPOS>MOLECULE
IMPHY015920
 9 9 0 0 0
SMALL
GASTEIGER

@<TRIPOS>ATOM
      1 N           2.8090   -0.4594    0.0000 N.ar    1  UNL1       -0.2847
      2 N           3.6180    0.1284    0.0000 N.ar    1  UNL1       -0.1823
      3 C           2.0000    0.1284    0.0000 C.ar    1  UNL1        0.0223
      4 C           2.3090    1.0794    0.0000 C.ar    1  UNL1       -0.0245
      5 C           3.3090    1.0794    0.0000 C.ar    1  UNL1        0.0491
      6 H           1.4103   -0.0632    0.0000 H       1  UNL1        0.0824
      7 H           1.9446    1.5810    0.0000 H       1  UNL1        0.0648
      8 H           2.8090   -1.0794    0.0000 H       1  UNL1        0.1882
      9 H           3.6734    1.5810    0.0000 H       1  UNL1        0.0848
@<TRIPOS>BOND
     1     1     2   ar
     2     1     3   ar
     3     1     8    1
     4     2     5   ar
     5     3     4   ar
     6     3     6    1
     7     4     5   ar
     8     4     7    1
     9     5     9    1
