@<TRIPOS>MOLECULE
IMPHY017558
 24 24 0 0 0
SMALL
GASTEIGER

@<TRIPOS>ATOM
      1 O           4.5981    1.7500    0.0000 O.3     1  UNL1       -0.4668
      2 O           5.4641    3.2500    0.0000 O.2     1  UNL1       -0.2546
      3 C           2.8660   -0.2500    0.0000 C.3     1  UNL1       -0.0246
      4 C           3.7320    0.2500    0.0000 C.3     1  UNL1       -0.0146
      5 C           2.8660   -1.2500    0.0000 C.ar    1  UNL1       -0.0472
      6 C           3.7320    1.2500    0.0000 C.3     1  UNL1        0.0925
      7 C           2.0000   -1.7500    0.0000 C.ar    1  UNL1       -0.0586
      8 C           3.7320   -1.7500    0.0000 C.ar    1  UNL1       -0.0586
      9 C           2.0000   -2.7500    0.0000 C.ar    1  UNL1       -0.0615
     10 C           3.7320   -2.7500    0.0000 C.ar    1  UNL1       -0.0615
     11 C           2.8660   -3.2500    0.0000 C.ar    1  UNL1       -0.0617
     12 C           4.5981    2.7500    0.0000 C.2     1  UNL1        0.2943
     13 H           2.6540    0.3326    0.0000 H       1  UNL1        0.0314
     14 H           2.2554   -0.3577    0.0000 H       1  UNL1        0.0314
     15 H           3.9441   -0.3326    0.0000 H       1  UNL1        0.0301
     16 H           4.3426    0.3577    0.0000 H       1  UNL1        0.0301
     17 H           3.5200    1.8326    0.0000 H       1  UNL1        0.0697
     18 H           3.1215    1.1423    0.0000 H       1  UNL1        0.0697
     19 H           1.4631   -1.4400    0.0000 H       1  UNL1        0.0620
     20 H           4.2690   -1.4400    0.0000 H       1  UNL1        0.0620
     21 H           1.4631   -3.0600    0.0000 H       1  UNL1        0.0618
     22 H           4.2690   -3.0600    0.0000 H       1  UNL1        0.0618
     23 H           2.8660   -3.8700    0.0000 H       1  UNL1        0.0618
     24 H           4.0611    3.0600    0.0000 H       1  UNL1        0.1512
@<TRIPOS>BOND
     1     1     6    1
     2     1    12    1
     3     2    12    2
     4     3     4    1
     5     3     5    1
     6     3    13    1
     7     3    14    1
     8     4     6    1
     9     4    15    1
    10     4    16    1
    11     5     7   ar
    12     5     8   ar
    13     6    17    1
    14     6    18    1
    15     7     9   ar
    16     7    19    1
    17     8    10   ar
    18     8    20    1
    19     9    11   ar
    20     9    21    1
    21    10    11   ar
    22    10    22    1
    23    11    23    1
    24    12    24    1
