@<TRIPOS>MOLECULE
IMPHY002692
 46 47 0 0 0
SMALL
GASTEIGER

@<TRIPOS>ATOM
      1 O           3.2320   -1.7319    0.0000 O.3     1  UNL1       -0.3885
      2 O           2.0000    1.1341    0.0000 O.3     1  UNL1       -0.3917
      3 O           8.1263   -1.3934    0.0000 O.3     1  UNL1       -0.3888
      4 C           4.5981    0.6341    0.0000 C.3     1  UNL1       -0.0243
      5 C           4.5981   -0.3659    0.0000 C.3     1  UNL1       -0.0065
      6 C           3.7320   -0.8659    0.0000 C.3     1  UNL1        0.0690
      7 C           5.4920   -0.9005    0.0000 C.3     1  UNL1       -0.0417
      8 C           5.4920    1.1688    0.0000 C.3     1  UNL1       -0.0469
      9 C           6.3981   -0.3867    0.0000 C.3     1  UNL1       -0.0123
     10 C           3.7320    1.1341    0.0000 C.3     1  UNL1       -0.0210
     11 C           6.3981    0.6549    0.0000 C.3     1  UNL1       -0.0471
     12 C           2.8660   -0.3659    0.0000 C.3     1  UNL1        0.0021
     13 C           2.8660    0.6341    0.0000 C.3     1  UNL1        0.0584
     14 C           4.5981    1.6341    0.0000 C.3     1  UNL1       -0.0591
     15 C           7.2622   -0.8900    0.0000 C.3     1  UNL1        0.0633
     16 C           4.2320   -1.7319    0.0000 C.3     1  UNL1       -0.0357
     17 C           7.7655   -0.0259    0.0000 C.3     1  UNL1       -0.0361
     18 C           6.7588   -1.7541    0.0000 C.3     1  UNL1       -0.0361
     19 H           4.5915   -1.2159    0.0000 H       1  UNL1        0.0334
     20 H           5.0874   -1.3703    0.0000 H       1  UNL1        0.0273
     21 H           5.8856   -1.3796    0.0000 H       1  UNL1        0.0273
     22 H           5.8856    1.6478    0.0000 H       1  UNL1        0.0271
     23 H           5.0874    1.6386    0.0000 H       1  UNL1        0.0271
     24 H           7.1350    0.0369    0.0000 H       1  UNL1        0.0328
     25 H           4.1306    1.6091    0.0000 H       1  UNL1        0.0295
     26 H           3.3335    1.6091    0.0000 H       1  UNL1        0.0295
     27 H           7.0089    0.5488    0.0000 H       1  UNL1        0.0269
     28 H           6.6071    1.2386    0.0000 H       1  UNL1        0.0269
     29 H           2.2554   -0.2582    0.0000 H       1  UNL1        0.0318
     30 H           2.6540   -0.9485    0.0000 H       1  UNL1        0.0318
     31 H           2.3291    0.3241    0.0000 H       1  UNL1        0.0594
     32 H           5.2181    1.6341    0.0000 H       1  UNL1        0.0235
     33 H           4.5981    2.2541    0.0000 H       1  UNL1        0.0235
     34 H           3.9781    1.6341    0.0000 H       1  UNL1        0.0235
     35 H           3.6951   -2.0419    0.0000 H       1  UNL1        0.0257
     36 H           4.5420   -2.2688    0.0000 H       1  UNL1        0.0257
     37 H           4.7690   -1.4219    0.0000 H       1  UNL1        0.0257
     38 H           2.6120   -1.7319    0.0000 H       1  UNL1        0.2102
     39 H           8.3012   -0.3380    0.0000 H       1  UNL1        0.0257
     40 H           8.0776    0.5098    0.0000 H       1  UNL1        0.0257
     41 H           7.2298    0.2861    0.0000 H       1  UNL1        0.0257
     42 H           6.2231   -1.4420    0.0000 H       1  UNL1        0.0257
     43 H           6.4468   -2.2899    0.0000 H       1  UNL1        0.0257
     44 H           7.2946   -2.0662    0.0000 H       1  UNL1        0.0257
     45 H           2.0000    1.7541    0.0000 H       1  UNL1        0.2098
     46 H           8.6644   -1.0854    0.0000 H       1  UNL1        0.2101
@<TRIPOS>BOND
     1     6     1    1
     2     1    38    1
     3    13     2    1
     4     2    45    1
     5     3    15    1
     6     3    46    1
     7     4     5    1
     8     4     8    1
     9     4    10    1
    10     4    14    1
    11     5     6    1
    12     5     7    1
    13     5    19    1
    14     6    12    1
    15     6    16    1
    16     7     9    1
    17     7    20    1
    18     7    21    1
    19     8    11    1
    20     8    22    1
    21     8    23    1
    22     9    11    1
    23     9    15    1
    24     9    24    1
    25    10    13    1
    26    10    25    1
    27    10    26    1
    28    11    27    1
    29    11    28    1
    30    12    13    1
    31    12    29    1
    32    12    30    1
    33    13    31    1
    34    14    32    1
    35    14    33    1
    36    14    34    1
    37    15    17    1
    38    15    18    1
    39    16    35    1
    40    16    36    1
    41    16    37    1
    42    17    39    1
    43    17    40    1
    44    17    41    1
    45    18    42    1
    46    18    43    1
    47    18    44    1
