@<TRIPOS>MOLECULE
IMPHY010665
 38 42 0 0 0
SMALL
GASTEIGER

@<TRIPOS>ATOM
      1 O           9.0890   -3.9327    0.0000 O.3     1  UNL1       -0.4540
      2 C           7.9529   -3.2835    0.0000 C.3     1  UNL1        0.1472
      3 C           7.9529   -1.9726    0.0000 C.3     1  UNL1        0.0605
      4 C           9.0890   -1.3109    0.0000 C.2     1  UNL1       -0.0360
      5 C          10.2251   -1.9726    0.0000 C.2     1  UNL1        0.0784
      6 C          10.2251   -3.2835    0.0000 C.2     1  UNL1        0.3386
      7 C           6.8167   -3.9327    0.0000 C.3     1  UNL1        0.1533
      8 O           6.8167   -2.6218    0.0000 O.3     1  UNL1       -0.2227
      9 C           9.0890    0.0000    0.0000 C.3     1  UNL1        0.0264
     10 C          11.3488   -1.3109    0.0000 C.3     1  UNL1        0.2144
     11 O          12.4849   -1.9726    0.0000 O.3     1  UNL1       -0.2150
     12 O          11.3488   -3.9327    0.0000 O.2     1  UNL1       -0.2452
     13 C           6.8167   -5.2436    0.0000 C.3     1  UNL1        0.0122
     14 C           5.6806   -5.9053    0.0000 C.3     1  UNL1        0.0245
     15 C           5.6806   -7.2163    0.0000 C.3     1  UNL1        0.1228
     16 C           4.5445   -7.8655    0.0000 C.3     1  UNL1        0.0082
     17 C           3.4084   -7.2163    0.0000 C.3     1  UNL1       -0.0102
     18 C           3.4084   -5.9053    0.0000 C.3     1  UNL1       -0.0034
     19 C           4.5445   -5.2436    0.0000 C.3     1  UNL1        0.0018
     20 C           7.9404   -5.9053    0.0000 C.3     1  UNL1        0.0011
     21 C           7.9404   -7.2163    0.0000 C.3     1  UNL1        0.0299
     22 C           4.5445   -9.1764    0.0000 C.3     1  UNL1        0.0235
     23 C           3.4084   -9.8381    0.0000 C.2     1  UNL1       -0.0341
     24 C           2.2722   -9.1764    0.0000 C.2     1  UNL1       -0.0382
     25 C           2.2722   -7.8655    0.0000 C.3     1  UNL1        0.0670
     26 C           1.1361   -7.2163    0.0000 C.2     1  UNL1        0.1751
     27 C           0.0000   -7.8655    0.0000 C.2     1  UNL1        0.0335
     28 C           0.0000   -9.1764    0.0000 C.2     1  UNL1       -0.0188
     29 C           1.1361   -9.8381    0.0000 C.3     1  UNL1        0.0481
     30 C           5.6806   -3.2835    0.0000 C.3     1  UNL1        0.0359
     31 C           5.6806   -4.5944    0.0000 C.3     1  UNL1        0.0022
     32 O           5.6806   -8.5272    0.0000 O.3     1  UNL1       -0.2260
     33 C           2.2722   -6.5546    0.0000 C.3     1  UNL1        0.0115
     34 O           1.1361   -5.9053    0.0000 O.2     1  UNL1       -0.2911
     35 H           3.3959   -8.4772    0.0000 H       1  UNL1        0.0323
     36 H           4.5445   -6.5546    0.0000 H       1  UNL1        0.0342
     37 H           6.8167   -6.4672    0.0000 H       1  UNL1        0.0344
     38 H           7.9529   -4.5944    0.0000 H       1  UNL1        0.0774
@<TRIPOS>BOND
     1     1     2    1
     2     1     6    1
     3     2     7    1
     4     2     3    1
     5     2    38    1
     6     3     4    1
     7     4     5    2
     8     4     9    1
     9     5     6    1
    10     5    10    1
    11     6    12    2
    12     7    13    1
    13     7    30    1
    14     7     8    1
    15    10    11    1
    16    13    14    1
    17    13    20    1
    18    13    37    1
    19    14    15    1
    20    14    19    1
    21    14    31    1
    22    15    16    1
    23    15    32    1
    24    15    21    1
    25    16    17    1
    26    16    22    1
    27    16    36    1
    28    17    25    1
    29    17    18    1
    30    17    35    1
    31    18    19    1
    32    20    21    1
    33    22    23    1
    34    23    24    2
    35    24    25    1
    36    24    29    1
    37    25    26    1
    38    25    33    1
    39    26    27    1
    40    26    34    2
    41    27    28    2
    42    28    29    1
