@<TRIPOS>MOLECULE
IMPHY011345
 34 35 0 0 0
SMALL
GASTEIGER

@<TRIPOS>ATOM
      1 O           3.7226   -1.5168    0.0000 O.3     1  UNL1       -0.4582
      2 O           2.7045   -0.1155    0.0000 O.2     1  UNL1       -0.2511
      3 C           5.4826    0.3800    0.0000 C.3     1  UNL1       -0.0199
      4 C           5.4826   -0.6200    0.0000 C.3     1  UNL1        0.0051
      5 C           6.3492   -0.1200    0.0000 C.3     1  UNL1       -0.0398
      6 C           4.5316   -0.9290    0.0000 C.3     1  UNL1        0.1141
      7 C           4.5316    0.6891    0.0000 C.3     1  UNL1       -0.0431
      8 C           3.9438   -0.1200    0.0000 C.3     1  UNL1       -0.0123
      9 C           5.4826    1.3800    0.0000 C.3     1  UNL1       -0.0407
     10 C           4.8406   -1.8800    0.0000 C.3     1  UNL1       -0.0246
     11 C           6.3487    1.8800    0.0000 C.3     1  UNL1       -0.0622
     12 C           4.6166    1.8800    0.0000 C.3     1  UNL1       -0.0622
     13 C           2.8090   -1.1100    0.0000 C.2     1  UNL1        0.3045
     14 C           2.0000   -1.6978    0.0000 C.3     1  UNL1        0.0333
     15 H           5.8283   -1.3965    0.0000 H       1  UNL1        0.0345
     16 H           6.7477   -0.5949    0.0000 H       1  UNL1        0.0275
     17 H           6.7477    0.3550    0.0000 H       1  UNL1        0.0275
     18 H           4.7838    1.2554    0.0000 H       1  UNL1        0.0272
     19 H           3.9946    0.9991    0.0000 H       1  UNL1        0.0272
     20 H           3.4830    0.2949    0.0000 H       1  UNL1        0.0304
     21 H           3.4830   -0.5348    0.0000 H       1  UNL1        0.0304
     22 H           5.4826    2.0000    0.0000 H       1  UNL1        0.0301
     23 H           4.2509   -2.0716    0.0000 H       1  UNL1        0.0268
     24 H           5.0322   -2.4697    0.0000 H       1  UNL1        0.0268
     25 H           5.4302   -1.6884    0.0000 H       1  UNL1        0.0268
     26 H           6.6587    1.3431    0.0000 H       1  UNL1        0.0233
     27 H           6.8856    2.1900    0.0000 H       1  UNL1        0.0233
     28 H           6.0387    2.4170    0.0000 H       1  UNL1        0.0233
     29 H           4.9266    2.4170    0.0000 H       1  UNL1        0.0233
     30 H           4.0797    2.1900    0.0000 H       1  UNL1        0.0233
     31 H           4.3066    1.3431    0.0000 H       1  UNL1        0.0233
     32 H           1.6356   -1.1962    0.0000 H       1  UNL1        0.0342
     33 H           1.4984   -2.0622    0.0000 H       1  UNL1        0.0342
     34 H           2.3644   -2.1994    0.0000 H       1  UNL1        0.0342
@<TRIPOS>BOND
     1     6     1    1
     2     1    13    1
     3     2    13    2
     4     3     4    1
     5     3     5    1
     6     3     7    1
     7     3     9    1
     8     4     5    1
     9     4     6    1
    10     4    15    1
    11     5    16    1
    12     5    17    1
    13     6     8    1
    14     6    10    1
    15     7     8    1
    16     7    18    1
    17     7    19    1
    18     8    20    1
    19     8    21    1
    20     9    11    1
    21     9    12    1
    22     9    22    1
    23    10    23    1
    24    10    24    1
    25    10    25    1
    26    11    26    1
    27    11    27    1
    28    11    28    1
    29    12    29    1
    30    12    30    1
    31    12    31    1
    32    13    14    1
    33    14    32    1
    34    14    33    1
    35    14    34    1
