@<TRIPOS>MOLECULE
IMPHY013508
 29 29 0 0 0
SMALL
GASTEIGER

@<TRIPOS>ATOM
      1 CL          5.0624    1.0800    0.0000 Cl      1  UNL1       -0.1454
      2 CL          5.0624    3.7708    0.0000 Cl      2  UNL2       -0.1454
      3 O           2.7192    2.1489    0.0000 O.3     3  UNL3       -0.3689
      4 N           0.2984    1.5625    0.0000 N.3     3  UNL3       -0.2928
      5 N           0.8223    3.9090    0.0000 N.3     3  UNL3       -0.3126
      6 C           1.1011    2.1489    0.0000 C.3     3  UNL3        0.0545
      7 C           1.4101    3.1000    0.0000 C.3     3  UNL3        0.0530
      8 C           1.9101    1.5611    0.0000 C.3     3  UNL3        0.0773
      9 C           2.4101    3.1000    0.0000 C.3     3  UNL3        0.0886
     10 C           0.9104    2.9409    0.0000 C.3     3  UNL3        0.0272
     11 C           1.6005    0.6165    0.0000 C.3     3  UNL3       -0.0122
     12 C           0.6064    0.6174    0.0000 C.3     3  UNL3        0.0018
     13 C           1.2291    4.8225    0.0000 C.3     3  UNL3       -0.0154
     14 H           0.2840    2.3832    0.0000 H       3  UNL3        0.0504
     15 H           1.6916    3.6524    0.0000 H       3  UNL3        0.0503
     16 H           2.5978    1.0615    0.0000 H       3  UNL3        0.0613
     17 H           2.9098    3.7876    0.0000 H       3  UNL3        0.0625
     18 H           0.9531    3.5594    0.0000 H       3  UNL3        0.0453
     19 H           0.3087    3.0902    0.0000 H       3  UNL3        0.0453
     20 H           1.5348    0.0000    0.0000 H       3  UNL3        0.0303
     21 H           2.2067    0.4864    0.0000 H       3  UNL3        0.0303
     22 H           0.0000    0.4883    0.0000 H       3  UNL3        0.0427
     23 H           0.6710    0.0007    0.0000 H       3  UNL3        0.0427
     24 H           0.2057    3.8442    0.0000 H       3  UNL3        0.1220
     25 H           1.7955    4.5704    0.0000 H       3  UNL3        0.0388
     26 H           1.4813    5.3889    0.0000 H       3  UNL3        0.0388
     27 H           0.6627    5.0747    0.0000 H       3  UNL3        0.0388
     28 H           6.0624    1.0800    0.0000 H       1  UNL1        0.1454
     29 H           6.0624    3.7708    0.0000 H       2  UNL2        0.1454
@<TRIPOS>BOND
     1     1    28    1
     2     2    29    1
     3     3     8    1
     4     3     9    1
     5     4     6    1
     6     4    10    1
     7     4    12    1
     8     7     5    1
     9     5    13    1
    10     5    24    1
    11     6     7    1
    12     6     8    1
    13     6    14    1
    14     7     9    1
    15     7    15    1
    16     8    11    1
    17     8    16    1
    18     9    10    1
    19     9    17    1
    20    10    18    1
    21    10    19    1
    22    11    12    1
    23    11    20    1
    24    11    21    1
    25    12    22    1
    26    12    23    1
    27    13    25    1
    28    13    26    1
    29    13    27    1
