@<TRIPOS>MOLECULE
IMPHY005089
 80 86 0 0 0
SMALL
GASTEIGER

@<TRIPOS>ATOM
      1 O          11.4007   -1.0218    0.0000 O.3     1  UNL1       -0.4811
      2 O           7.6432   -1.0909    0.0000 O.3     1  UNL1       -0.4800
      3 O           5.9237    0.9199    0.0000 O.3     1  UNL1       -0.4534
      4 O           8.8086   -0.4918    0.0000 O.3     1  UNL1       -0.3875
      5 O          10.5405    3.5573    0.0000 O.3     1  UNL1       -0.5028
      6 O           9.0988    3.6212    0.0000 O.3     1  UNL1       -0.5027
      7 O          12.3222    2.5469    0.0000 O.3     1  UNL1       -0.5033
      8 O           4.3819   -2.3675    0.0000 O.3     1  UNL1       -0.5063
      9 O           9.6119   -4.0328    0.0000 O.3     1  UNL1       -0.5063
     10 O           7.2779    3.2055    0.0000 O.2     1  UNL1       -0.2840
     11 O           7.1409   -4.5852    0.0000 O.3     1  UNL1       -0.5065
     12 O          13.1513   -4.0874    0.0000 O.3     1  UNL1       -0.5065
     13 O           4.3114    0.2871    0.0000 O.2     1  UNL1       -0.2449
     14 O           2.2265    3.2287    0.0000 O.3     1  UNL1       -0.5032
     15 O           5.4512    4.4943    0.0000 O.3     1  UNL1       -0.5032
     16 O           3.4735    4.7924    0.0000 O.3     1  UNL1       -0.5009
     17 C          10.5405   -0.5119    0.0000 C.3     1  UNL1        0.1518
     18 C           7.2779   -0.1601    0.0000 C.3     1  UNL1        0.1623
     19 C           6.2890   -0.0110    0.0000 C.3     1  UNL1        0.1483
     20 C           9.6687   -1.0018    0.0000 C.3     1  UNL1        0.1004
     21 C          10.5520    0.4881    0.0000 C.ar    1  UNL1        0.0067
     22 C           5.6655   -0.7928    0.0000 C.3     1  UNL1        0.0204
     23 C           9.6572   -2.0017    0.0000 C.3     1  UNL1        0.0092
     24 C           7.9014    0.6218    0.0000 C.ar    1  UNL1        0.0006
     25 C           9.6581    1.0227    0.0000 C.ar    1  UNL1       -0.0034
     26 C           6.0309   -1.7237    0.0000 C.ar    1  UNL1        0.0395
     27 C           8.8763    0.3993    0.0000 C.ar    1  UNL1       -0.0465
     28 C          10.5174   -2.5117    0.0000 C.ar    1  UNL1        0.0384
     29 C           9.6581    2.0227    0.0000 C.ar    1  UNL1        0.0728
     30 C           7.0197   -1.8728    0.0000 C.ar    1  UNL1        0.1318
     31 C          11.3891   -2.0218    0.0000 C.ar    1  UNL1        0.1317
     32 C          11.4581    1.0019    0.0000 C.ar    1  UNL1       -0.0092
     33 C           7.4675    1.5227    0.0000 C.ar    1  UNL1       -0.0044
     34 C          10.5520    2.5574    0.0000 C.ar    1  UNL1        0.1698
     35 C           8.8763    2.6462    0.0000 C.ar    1  UNL1        0.1751
     36 C          11.4581    2.0436    0.0000 C.ar    1  UNL1        0.1594
     37 C           5.3690   -2.5280    0.0000 C.ar    1  UNL1        0.1271
     38 C          10.4893   -3.5530    0.0000 C.ar    1  UNL1        0.1270
     39 C           7.9014    2.4237    0.0000 C.ar    1  UNL1        0.2211
     40 C           7.4152   -2.8364    0.0000 C.ar    1  UNL1        0.0221
     41 C          12.2932   -2.5391    0.0000 C.ar    1  UNL1        0.0221
     42 C           5.7420   -3.5005    0.0000 C.ar    1  UNL1        0.0218
     43 C          11.3811   -4.0911    0.0000 C.ar    1  UNL1        0.0218
     44 C           6.7720   -3.6558    0.0000 C.ar    1  UNL1        0.1238
     45 C          12.2892   -3.5807    0.0000 C.ar    1  UNL1        0.1238
     46 C           4.9348    1.0689    0.0000 C.2     1  UNL1        0.3398
     47 C           4.5695    1.9998    0.0000 C.ar    1  UNL1        0.0661
     48 C           5.1930    2.7816    0.0000 C.ar    1  UNL1       -0.0023
     49 C           3.5807    2.1488    0.0000 C.ar    1  UNL1       -0.0023
     50 C           3.2153    3.0797    0.0000 C.ar    1  UNL1        0.1628
     51 C           4.8277    3.7125    0.0000 C.ar    1  UNL1        0.1628
     52 C           3.8388    3.8615    0.0000 C.ar    1  UNL1        0.2006
     53 H          11.2815   -0.0954    0.0000 H       1  UNL1        0.0811
     54 H           7.8909   -0.2525    0.0000 H       1  UNL1        0.0822
     55 H           6.6756    0.4737    0.0000 H       1  UNL1        0.0778
     56 H           9.1282   -1.3056    0.0000 H       1  UNL1        0.0637
     57 H           5.2553   -0.3280    0.0000 H       1  UNL1        0.0353
     58 H           5.1365   -1.1161    0.0000 H       1  UNL1        0.0353
     59 H           9.0479   -1.8870    0.0000 H       1  UNL1        0.0342
     60 H           9.4384   -2.5819    0.0000 H       1  UNL1        0.0342
     61 H           9.0142   -0.2052    0.0000 H       1  UNL1        0.0628
     62 H          11.9939    0.6899    0.0000 H       1  UNL1        0.0659
     63 H           6.8475    1.5227    0.0000 H       1  UNL1        0.0661
     64 H           8.2681   -0.7956    0.0000 H       1  UNL1        0.2100
     65 H           8.0293   -2.9217    0.0000 H       1  UNL1        0.0691
     66 H          12.8301   -2.2291    0.0000 H       1  UNL1        0.0691
     67 H           5.3536   -3.9838    0.0000 H       1  UNL1        0.0691
     68 H          11.3716   -4.7110    0.0000 H       1  UNL1        0.0691
     69 H          11.0738    3.8735    0.0000 H       1  UNL1        0.2923
     70 H           8.6443    4.0429    0.0000 H       1  UNL1        0.2923
     71 H          12.8603    2.2390    0.0000 H       1  UNL1        0.2923
     72 H           3.9898   -2.8478    0.0000 H       1  UNL1        0.2921
     73 H           9.5976   -4.6526    0.0000 H       1  UNL1        0.2921
     74 H           6.7562   -5.0714    0.0000 H       1  UNL1        0.2921
     75 H          13.1465   -4.7074    0.0000 H       1  UNL1        0.2921
     76 H           5.8061    2.6892    0.0000 H       1  UNL1        0.0663
     77 H           3.1941    1.6641    0.0000 H       1  UNL1        0.0663
     78 H           2.0000    3.8059    0.0000 H       1  UNL1        0.2923
     79 H           5.2246    5.0714    0.0000 H       1  UNL1        0.2923
     80 H           2.8604    4.8848    0.0000 H       1  UNL1        0.2924
@<TRIPOS>BOND
     1     1    17    1
     2     1    31    1
     3     2    18    1
     4     2    30    1
     5    19     3    1
     6     3    46    1
     7    20     4    1
     8     4    64    1
     9     5    34    1
    10     5    69    1
    11     6    35    1
    12     6    70    1
    13     7    36    1
    14     7    71    1
    15     8    37    1
    16     8    72    1
    17     9    38    1
    18     9    73    1
    19    10    39    2
    20    11    44    1
    21    11    74    1
    22    12    45    1
    23    12    75    1
    24    13    46    2
    25    14    50    1
    26    14    78    1
    27    15    51    1
    28    15    79    1
    29    16    52    1
    30    16    80    1
    31    17    20    1
    32    17    21    1
    33    17    53    1
    34    18    19    1
    35    18    24    1
    36    18    54    1
    37    19    22    1
    38    19    55    1
    39    20    23    1
    40    20    56    1
    41    21    25   ar
    42    21    32   ar
    43    22    26    1
    44    22    57    1
    45    22    58    1
    46    23    28    1
    47    23    59    1
    48    23    60    1
    49    24    27   ar
    50    24    33   ar
    51    25    27   ar
    52    25    29   ar
    53    26    30   ar
    54    26    37   ar
    55    27    61    1
    56    28    31   ar
    57    28    38   ar
    58    29    34   ar
    59    29    35   ar
    60    30    40   ar
    61    31    41   ar
    62    32    36   ar
    63    32    62    1
    64    33    39   ar
    65    33    63    1
    66    34    36   ar
    67    35    39   ar
    68    37    42   ar
    69    38    43   ar
    70    40    44   ar
    71    40    65    1
    72    41    45   ar
    73    41    66    1
    74    42    44   ar
    75    42    67    1
    76    43    45   ar
    77    43    68    1
    78    46    47    1
    79    47    48   ar
    80    47    49   ar
    81    48    51   ar
    82    48    76    1
    83    49    50   ar
    84    49    77    1
    85    50    52   ar
    86    51    52   ar
