@<TRIPOS>MOLECULE
IMPHY016839
 40 41 0 0 0
SMALL
GASTEIGER

@<TRIPOS>ATOM
      1 O           2.1219    2.0845    0.0000 O.2     1  UNL1       -0.2971
      2 C           5.3082    0.3136    0.0000 C.3     1  UNL1       -0.0324
      3 C           4.4422   -0.1864    0.0000 C.3     1  UNL1       -0.0190
      4 C           3.5761    1.3136    0.0000 C.3     1  UNL1        0.0181
      5 C           3.5761    0.3136    0.0000 C.3     1  UNL1       -0.0370
      6 C           5.3082    1.3136    0.0000 C.3     1  UNL1       -0.0488
      7 C           4.4422    1.8136    0.0000 C.3     1  UNL1       -0.0432
      8 C           6.1742   -0.1864    0.0000 C.3     1  UNL1       -0.0434
      9 C           3.8664   -0.9750    0.0000 C.2     1  UNL1       -0.0816
     10 C           2.6054    1.2092    0.0000 C.2     1  UNL1        0.1367
     11 C           2.0000    0.4431    0.0000 C.3     1  UNL1        0.0098
     12 C           2.9003   -1.1162    0.0000 C.2     1  UNL1       -0.0759
     13 C           7.0402    0.3136    0.0000 C.3     1  UNL1       -0.0624
     14 C           6.1742   -1.1864    0.0000 C.3     1  UNL1       -0.0624
     15 C           2.1228   -0.5255    0.0000 C.3     1  UNL1       -0.0253
     16 C           2.6506   -2.0845    0.0000 C.3     1  UNL1       -0.0438
     17 H           5.8451    0.6236    0.0000 H       1  UNL1        0.0309
     18 H           4.8565   -0.6477    0.0000 H       1  UNL1        0.0346
     19 H           3.3838    1.9030    0.0000 H       1  UNL1        0.0377
     20 H           2.9656    0.4212    0.0000 H       1  UNL1        0.0278
     21 H           3.3641   -0.2691    0.0000 H       1  UNL1        0.0278
     22 H           5.9188    1.2059    0.0000 H       1  UNL1        0.0268
     23 H           5.5202    1.8962    0.0000 H       1  UNL1        0.0268
     24 H           4.8407    2.2885    0.0000 H       1  UNL1        0.0272
     25 H           4.0436    2.2885    0.0000 H       1  UNL1        0.0272
     26 H           6.1742    0.4336    0.0000 H       1  UNL1        0.0298
     27 H           4.1865   -1.5059    0.0000 H       1  UNL1        0.0574
     28 H           1.6280    0.9391    0.0000 H       1  UNL1        0.0345
     29 H           1.4253    0.2104    0.0000 H       1  UNL1        0.0345
     30 H           7.3502   -0.2234    0.0000 H       1  UNL1        0.0232
     31 H           7.5772    0.6236    0.0000 H       1  UNL1        0.0232
     32 H           6.7302    0.8505    0.0000 H       1  UNL1        0.0232
     33 H           5.5542   -1.1864    0.0000 H       1  UNL1        0.0232
     34 H           6.1742   -1.8064    0.0000 H       1  UNL1        0.0232
     35 H           6.7942   -1.1864    0.0000 H       1  UNL1        0.0232
     36 H           1.5083   -0.4436    0.0000 H       1  UNL1        0.0314
     37 H           1.8865   -1.0987    0.0000 H       1  UNL1        0.0314
     38 H           2.0503   -1.9298    0.0000 H       1  UNL1        0.0274
     39 H           2.4959   -2.6849    0.0000 H       1  UNL1        0.0274
     40 H           3.2510   -2.2393    0.0000 H       1  UNL1        0.0274
@<TRIPOS>BOND
     1     1    10    2
     2     2     3    1
     3     2     6    1
     4     2     8    1
     5     2    17    1
     6     3     5    1
     7     3     9    1
     8     3    18    1
     9     4     5    1
    10     4     7    1
    11     4    10    1
    12     4    19    1
    13     5    20    1
    14     5    21    1
    15     6     7    1
    16     6    22    1
    17     6    23    1
    18     7    24    1
    19     7    25    1
    20     8    13    1
    21     8    14    1
    22     8    26    1
    23     9    12    2
    24     9    27    1
    25    10    11    1
    26    11    15    1
    27    11    28    1
    28    11    29    1
    29    12    15    1
    30    12    16    1
    31    13    30    1
    32    13    31    1
    33    13    32    1
    34    14    33    1
    35    14    34    1
    36    14    35    1
    37    15    36    1
    38    15    37    1
    39    16    38    1
    40    16    39    1
    41    16    40    1
