@<TRIPOS>MOLECULE
IMPHY001254
 54 57 0 0 0
SMALL
GASTEIGER

@<TRIPOS>ATOM
      1 O           5.1350   -0.3845    0.0000 O.3     1  UNL1       -0.3313
      2 O           6.8671   -0.3845    0.0000 O.3     1  UNL1       -0.4600
      3 O           5.1350   -3.3845    0.0000 O.3     1  UNL1       -0.3864
      4 O           3.4030   -2.3845    0.0000 O.3     1  UNL1       -0.3865
      5 O           6.8671   -2.3845    0.0000 O.3     1  UNL1       -0.3829
      6 O           2.5369   -0.8845    0.0000 O.3     1  UNL1       -0.3924
      7 O           5.1208    2.6946    0.0000 O.3     1  UNL1       -0.4950
      8 O           8.6158   -0.3701    0.0000 O.2     1  UNL1       -0.2864
      9 O           8.6620    3.6296    0.0000 O.2     1  UNL1       -0.2866
     10 O          10.3636   -0.4249    0.0000 O.3     1  UNL1       -0.5060
     11 C           5.1350   -2.3845    0.0000 C.3     1  UNL1        0.1152
     12 C           4.2690   -1.8845    0.0000 C.3     1  UNL1        0.1120
     13 C           6.0010   -1.8845    0.0000 C.3     1  UNL1        0.1454
     14 C           4.2690   -0.8845    0.0000 C.3     1  UNL1        0.1140
     15 C           6.0010   -0.8845    0.0000 C.3     1  UNL1        0.2308
     16 C           3.4030   -0.3845    0.0000 C.3     1  UNL1        0.0731
     17 C           6.8671    0.6155    0.0000 C.ar    1  UNL1        0.1390
     18 C           7.7671    1.1398    0.0000 C.ar    1  UNL1        0.0751
     19 C           7.7787    2.1397    0.0000 C.ar    1  UNL1        0.0401
     20 C           5.9670    1.1398    0.0000 C.ar    1  UNL1        0.0226
     21 C           8.6273    0.6298    0.0000 C.2     1  UNL1        0.2015
     22 C           9.4991    1.1198    0.0000 C.ar    1  UNL1        0.0745
     23 C           9.5106    2.1197    0.0000 C.ar    1  UNL1        0.0368
     24 C           8.6504    2.6297    0.0000 C.2     1  UNL1        0.1949
     25 C           6.8910    2.6847    0.0000 C.ar    1  UNL1       -0.0082
     26 C           5.9790    2.1813    0.0000 C.ar    1  UNL1        0.1243
     27 C          10.3868    0.5748    0.0000 C.ar    1  UNL1        0.1286
     28 C          10.4107    2.6440    0.0000 C.ar    1  UNL1       -0.0471
     29 C          11.3108    2.1197    0.0000 C.ar    1  UNL1       -0.0463
     30 C          11.2987    1.0781    0.0000 C.ar    1  UNL1       -0.0165
     31 C          12.1806    2.6130    0.0000 C.3     1  UNL1       -0.0396
     32 C           5.1363    3.6945    0.0000 C.3     1  UNL1        0.0788
     33 H           5.6720   -2.6945    0.0000 H       1  UNL1        0.0648
     34 H           4.2690   -2.5045    0.0000 H       1  UNL1        0.0647
     35 H           6.5380   -1.5745    0.0000 H       1  UNL1        0.0683
     36 H           4.2690   -0.2645    0.0000 H       1  UNL1        0.0647
     37 H           6.0010   -0.2645    0.0000 H       1  UNL1        0.1084
     38 H           3.8015    0.0904    0.0000 H       1  UNL1        0.0584
     39 H           3.0044    0.0904    0.0000 H       1  UNL1        0.0584
     40 H           4.5981   -3.6945    0.0000 H       1  UNL1        0.2100
     41 H           3.4030   -3.0045    0.0000 H       1  UNL1        0.2100
     42 H           6.8671   -3.0045    0.0000 H       1  UNL1        0.2102
     43 H           5.4277    0.8339    0.0000 H       1  UNL1        0.0691
     44 H           2.0000   -0.5745    0.0000 H       1  UNL1        0.2095
     45 H           6.9053    3.3045    0.0000 H       1  UNL1        0.0661
     46 H          10.4107    3.2640    0.0000 H       1  UNL1        0.0627
     47 H          11.8308    0.7599    0.0000 H       1  UNL1        0.0657
     48 H          12.4865    2.0737    0.0000 H       1  UNL1        0.0278
     49 H          12.7199    2.9188    0.0000 H       1  UNL1        0.0278
     50 H          11.8748    3.1523    0.0000 H       1  UNL1        0.0278
     51 H          10.8933   -0.7473    0.0000 H       1  UNL1        0.2922
     52 H           5.7562    3.6850    0.0000 H       1  UNL1        0.0660
     53 H           5.1458    4.3144    0.0000 H       1  UNL1        0.0660
     54 H           4.5163    3.7041    0.0000 H       1  UNL1        0.0660
@<TRIPOS>BOND
     1     1    14    1
     2     1    15    1
     3     2    15    1
     4     2    17    1
     5     3    11    1
     6     3    40    1
     7     4    12    1
     8     4    41    1
     9     5    13    1
    10     5    42    1
    11     6    16    1
    12     6    44    1
    13     7    26    1
    14     7    32    1
    15     8    21    2
    16     9    24    2
    17    10    27    1
    18    10    51    1
    19    11    12    1
    20    11    13    1
    21    11    33    1
    22    12    14    1
    23    12    34    1
    24    13    15    1
    25    13    35    1
    26    14    16    1
    27    14    36    1
    28    15    37    1
    29    16    38    1
    30    16    39    1
    31    17    18   ar
    32    17    20   ar
    33    18    19   ar
    34    18    21    1
    35    19    24    1
    36    19    25   ar
    37    20    26   ar
    38    20    43    1
    39    21    22    1
    40    22    23   ar
    41    22    27   ar
    42    23    24    1
    43    23    28   ar
    44    25    26   ar
    45    25    45    1
    46    27    30   ar
    47    28    29   ar
    48    28    46    1
    49    29    30   ar
    50    29    31    1
    51    30    47    1
    52    31    48    1
    53    31    49    1
    54    31    50    1
    55    32    52    1
    56    32    53    1
    57    32    54    1
