@<TRIPOS>MOLECULE
IMPHY004807
 55 58 0 0 0
SMALL
GASTEIGER

@<TRIPOS>ATOM
      1 O           5.1350    0.6104    0.0000 O.3     1  UNL1       -0.3609
      2 O           6.8671    2.6104    0.0000 O.3     1  UNL1       -0.3862
      3 O           5.1350    3.6104    0.0000 O.3     1  UNL1       -0.3865
      4 O           3.4030    2.6104    0.0000 O.3     1  UNL1       -0.3865
      5 O           2.5369    1.1104    0.0000 O.3     1  UNL1       -0.3924
      6 O           7.7331    2.1104    0.0000 O.3     1  UNL1       -0.5054
      7 O           6.0010   -0.8896    0.0000 O.3     1  UNL1       -0.5062
      8 O           9.4931   -0.9243    0.0000 O.2     1  UNL1       -0.4544
      9 O           9.4815    2.1450    0.0000 O.2     1  UNL1       -0.2869
     10 O          12.1196   -3.4171    0.0000 O.3     1  UNL1       -0.4914
     11 O          13.8555   -2.4238    0.0000 O.3     1  UNL1       -0.5033
     12 C           6.0010    2.1104    0.0000 C.3     1  UNL1        0.1139
     13 C           5.1350    2.6104    0.0000 C.3     1  UNL1        0.1121
     14 C           6.0010    1.1104    0.0000 C.3     1  UNL1        0.1193
     15 C           4.2690    2.1104    0.0000 C.3     1  UNL1        0.1117
     16 C           4.2690    1.1104    0.0000 C.3     1  UNL1        0.1108
     17 C           6.8671    0.6104    0.0000 C.ar    1  UNL1        0.0673
     18 C           3.4030    0.6104    0.0000 C.3     1  UNL1        0.0729
     19 C           7.7331    1.1104    0.0000 C.ar    1  UNL1        0.1404
     20 C           6.8671   -0.3896    0.0000 C.ar    1  UNL1        0.1296
     21 C           8.5991    0.6104    0.0000 C.ar    1  UNL1        0.1058
     22 C           7.7331   -0.8896    0.0000 C.ar    1  UNL1        0.0235
     23 C           8.5991   -0.3896    0.0000 C.ar    1  UNL1        0.1463
     24 C           9.4931    1.1451    0.0000 C.ar    1  UNL1        0.1966
     25 C          10.3991   -0.4104    0.0000 C.ar    1  UNL1        0.1393
     26 C          10.3991    0.6312    0.0000 C.ar    1  UNL1        0.0288
     27 C          11.2632   -0.9137    0.0000 C.ar    1  UNL1        0.0211
     28 C          11.2594   -1.9137    0.0000 C.ar    1  UNL1       -0.0057
     29 C          12.1312   -0.4171    0.0000 C.ar    1  UNL1       -0.0474
     30 C          12.1235   -2.4171    0.0000 C.ar    1  UNL1        0.1619
     31 C          12.9953   -0.9204    0.0000 C.ar    1  UNL1       -0.0159
     32 C          12.9914   -1.9204    0.0000 C.ar    1  UNL1        0.1585
     33 C          12.9837   -3.9204    0.0000 C.3     1  UNL1        0.0790
     34 H           6.5380    1.8004    0.0000 H       1  UNL1        0.0649
     35 H           5.6720    2.9204    0.0000 H       1  UNL1        0.0647
     36 H           6.0010    0.2604    0.0000 H       1  UNL1        0.0676
     37 H           4.2690    2.7304    0.0000 H       1  UNL1        0.0647
     38 H           4.2690    0.4904    0.0000 H       1  UNL1        0.0646
     39 H           3.0044    0.1355    0.0000 H       1  UNL1        0.0584
     40 H           3.8015    0.1355    0.0000 H       1  UNL1        0.0584
     41 H           6.8671    3.2304    0.0000 H       1  UNL1        0.2100
     42 H           4.5981    3.9204    0.0000 H       1  UNL1        0.2100
     43 H           3.4030    3.2304    0.0000 H       1  UNL1        0.2100
     44 H           7.7331   -1.5096    0.0000 H       1  UNL1        0.0691
     45 H           2.0000    0.8004    0.0000 H       1  UNL1        0.2095
     46 H           8.2700    2.4204    0.0000 H       1  UNL1        0.2922
     47 H           6.0010   -1.5096    0.0000 H       1  UNL1        0.2922
     48 H          10.9349    0.9433    0.0000 H       1  UNL1        0.0693
     49 H          10.7212   -2.2217    0.0000 H       1  UNL1        0.0662
     50 H          12.1336    0.2029    0.0000 H       1  UNL1        0.0626
     51 H          13.5334   -0.6125    0.0000 H       1  UNL1        0.0655
     52 H          14.3936   -2.1158    0.0000 H       1  UNL1        0.2923
     53 H          12.6716   -4.4561    0.0000 H       1  UNL1        0.0660
     54 H          13.5194   -4.2325    0.0000 H       1  UNL1        0.0660
     55 H          13.2958   -3.3847    0.0000 H       1  UNL1        0.0660
@<TRIPOS>BOND
     1     1    14    1
     2     1    16    1
     3    12     2    1
     4     2    41    1
     5    13     3    1
     6     3    42    1
     7    15     4    1
     8     4    43    1
     9     5    18    1
    10     5    45    1
    11     6    19    1
    12     6    46    1
    13     7    20    1
    14     7    47    1
    15     8    23   ar
    16     8    25   ar
    17     9    24    2
    18    10    30    1
    19    10    33    1
    20    11    32    1
    21    11    52    1
    22    12    13    1
    23    12    14    1
    24    12    34    1
    25    13    15    1
    26    13    35    1
    27    14    17    1
    28    14    36    1
    29    15    16    1
    30    15    37    1
    31    16    18    1
    32    16    38    1
    33    17    19   ar
    34    17    20   ar
    35    18    39    1
    36    18    40    1
    37    19    21   ar
    38    20    22   ar
    39    21    23   ar
    40    21    24   ar
    41    22    23   ar
    42    22    44    1
    43    24    26   ar
    44    25    26   ar
    45    25    27    1
    46    26    48    1
    47    27    28   ar
    48    27    29   ar
    49    28    30   ar
    50    28    49    1
    51    29    31   ar
    52    29    50    1
    53    30    32   ar
    54    31    32   ar
    55    31    51    1
    56    33    53    1
    57    33    54    1
    58    33    55    1
