@<TRIPOS>MOLECULE
IMPHY015306
 28 27 0 0 0
SMALL
GASTEIGER

@<TRIPOS>ATOM
      1 C           3.7320   -0.0600    0.0000 C.3     1  UNL1       -0.0135
      2 C           4.5981    0.4400    0.0000 C.3     1  UNL1       -0.0234
      3 C           3.2320    0.8060    0.0000 C.3     1  UNL1       -0.0561
      4 C           4.2320   -0.9260    0.0000 C.3     1  UNL1       -0.0561
      5 C           5.4641   -0.0600    0.0000 C.2     1  UNL1       -0.0760
      6 C           2.8660   -0.5600    0.0000 C.2     1  UNL1       -0.0851
      7 C           5.4641   -1.0600    0.0000 C.3     1  UNL1       -0.0438
      8 C           6.3301    0.4400    0.0000 C.2     1  UNL1       -0.0881
      9 C           2.0000   -0.0600    0.0000 C.2     1  UNL1       -0.1021
     10 C           7.1962   -0.0600    0.0000 C.3     1  UNL1       -0.0466
     11 H           4.9966    0.9149    0.0000 H       1  UNL1        0.0318
     12 H           4.1996    0.9149    0.0000 H       1  UNL1        0.0318
     13 H           3.7690    1.1160    0.0000 H       1  UNL1        0.0238
     14 H           2.9220    1.3430    0.0000 H       1  UNL1        0.0238
     15 H           2.6951    0.4960    0.0000 H       1  UNL1        0.0238
     16 H           3.6951   -1.2360    0.0000 H       1  UNL1        0.0238
     17 H           4.5420   -1.4630    0.0000 H       1  UNL1        0.0238
     18 H           4.7690   -0.6160    0.0000 H       1  UNL1        0.0238
     19 H           2.8660   -1.1800    0.0000 H       1  UNL1        0.0572
     20 H           4.8441   -1.0600    0.0000 H       1  UNL1        0.0274
     21 H           5.4641   -1.6800    0.0000 H       1  UNL1        0.0274
     22 H           6.0841   -1.0600    0.0000 H       1  UNL1        0.0274
     23 H           6.3301    1.0600    0.0000 H       1  UNL1        0.0569
     24 H           2.0000    0.5600    0.0000 H       1  UNL1        0.0532
     25 H           1.4631   -0.3700    0.0000 H       1  UNL1        0.0532
     26 H           6.8862   -0.5969    0.0000 H       1  UNL1        0.0272
     27 H           7.7331   -0.3700    0.0000 H       1  UNL1        0.0272
     28 H           7.5062    0.4769    0.0000 H       1  UNL1        0.0272
@<TRIPOS>BOND
     1     1     2    1
     2     1     3    1
     3     1     4    1
     4     1     6    1
     5     2     5    1
     6     2    11    1
     7     2    12    1
     8     3    13    1
     9     3    14    1
    10     3    15    1
    11     4    16    1
    12     4    17    1
    13     4    18    1
    14     5     7    1
    15     5     8    2
    16     6     9    2
    17     6    19    1
    18     7    20    1
    19     7    21    1
    20     7    22    1
    21     8    10    1
    22     8    23    1
    23     9    24    1
    24     9    25    1
    25    10    26    1
    26    10    27    1
    27    10    28    1
