@<TRIPOS>MOLECULE
IMPHY006289
 92 96 0 0 0
SMALL
GASTEIGER

@<TRIPOS>ATOM
      1 O          10.9848    2.8414    0.0000 O.3     1  UNL1       -0.4610
      2 O           7.8770   -2.1690    0.0000 O.3     1  UNL1       -0.4673
      3 O           6.5109   -2.5351    0.0000 O.2     1  UNL1       -0.2498
      4 O           3.8493   -3.3447    0.0000 O.3     1  UNL1       -0.4675
      5 O           5.5813   -3.3581    0.0000 O.2     1  UNL1       -0.2502
      6 O          10.1130    4.3380    0.0000 O.2     1  UNL1       -0.2512
      7 C           7.3770   -0.3030    0.0000 C.3     1  UNL1       -0.0090
      8 C           7.3770    0.6970    0.0000 C.3     1  UNL1       -0.0252
      9 C           8.2709    1.2316    0.0000 C.3     1  UNL1       -0.0249
     10 C           6.5109   -0.8030    0.0000 C.3     1  UNL1        0.0945
     11 C           9.1770    0.7178    0.0000 C.3     1  UNL1       -0.0268
     12 C           8.2709   -0.8377    0.0000 C.3     1  UNL1       -0.0457
     13 C           9.1770   -0.3238    0.0000 C.3     1  UNL1       -0.0486
     14 C          10.1208    1.2530    0.0000 C.3     1  UNL1        0.0055
     15 C           5.6449   -0.3030    0.0000 C.2     1  UNL1       -0.0518
     16 C           4.7349   -0.8099    0.0000 C.3     1  UNL1       -0.0003
     17 C           6.5109    1.1970    0.0000 C.3     1  UNL1       -0.0306
     18 C           8.2458    2.3164    0.0000 C.3     1  UNL1       -0.0437
     19 C           4.7269   -1.8514    0.0000 C.3     1  UNL1        0.0745
     20 C           6.5270   -1.8445    0.0000 C.3     1  UNL1       -0.0319
     21 C           7.5507   -1.2878    0.0000 C.3     1  UNL1       -0.0580
     22 C           5.6290   -2.3723    0.0000 C.3     1  UNL1       -0.0354
     23 C          10.1208    2.3380    0.0000 C.3     1  UNL1        0.1084
     24 C           7.4010    1.7250    0.0000 C.3     1  UNL1       -0.0590
     25 C           5.6449    0.6970    0.0000 C.2     1  UNL1       -0.0831
     26 C           9.1770    2.8733    0.0000 C.3     1  UNL1       -0.0146
     27 C           3.8081   -0.2458    0.0000 C.3     1  UNL1       -0.0337
     28 C           7.0109   -1.6690    0.0000 C.2     1  UNL1        0.3177
     29 C           3.7914   -2.4012    0.0000 C.3     1  UNL1       -0.0364
     30 C           2.8602   -0.7737    0.0000 C.3     1  UNL1       -0.0407
     31 C          11.1207    1.2492    0.0000 C.3     1  UNL1       -0.0562
     32 C          10.6174    0.3851    0.0000 C.3     1  UNL1       -0.0562
     33 C           2.8518   -1.8587    0.0000 C.3     1  UNL1       -0.0492
     34 C           4.7192   -2.8514    0.0000 C.2     1  UNL1        0.3136
     35 C           3.8273    0.7540    0.0000 C.3     1  UNL1       -0.0616
     36 C           2.0000   -0.2637    0.0000 C.3     1  UNL1       -0.0622
     37 C          10.9810    3.8414    0.0000 C.2     1  UNL1        0.3042
     38 C           7.8770   -3.1690    0.0000 C.3     1  UNL1        0.0817
     39 C           3.8416   -4.3447    0.0000 C.3     1  UNL1        0.0817
     40 C          11.8451    4.3447    0.0000 C.3     1  UNL1        0.0332
     41 H           7.9163    0.3911    0.0000 H       1  UNL1        0.0315
     42 H           9.7127    0.4057    0.0000 H       1  UNL1        0.0312
     43 H           7.8663   -1.3075    0.0000 H       1  UNL1        0.0271
     44 H           8.6645   -1.3167    0.0000 H       1  UNL1        0.0271
     45 H           9.3860   -0.9075    0.0000 H       1  UNL1        0.0268
     46 H           9.7878   -0.2177    0.0000 H       1  UNL1        0.0268
     47 H           4.7469   -0.1900    0.0000 H       1  UNL1        0.0359
     48 H           6.9095    1.6719    0.0000 H       1  UNL1        0.0310
     49 H           6.1124    1.6719    0.0000 H       1  UNL1        0.0310
     50 H           8.0233    2.8951    0.0000 H       1  UNL1        0.0272
     51 H           7.6376    2.1962    0.0000 H       1  UNL1        0.0272
     52 H           6.7450   -2.4249    0.0000 H       1  UNL1        0.0279
     53 H           7.1361   -1.7290    0.0000 H       1  UNL1        0.0279
     54 H           6.9401   -1.3955    0.0000 H       1  UNL1        0.0236
     55 H           7.6584   -1.8984    0.0000 H       1  UNL1        0.0236
     56 H           8.1613   -1.1801    0.0000 H       1  UNL1        0.0236
     57 H           5.2316   -2.8482    0.0000 H       1  UNL1        0.0276
     58 H           6.0299   -2.8452    0.0000 H       1  UNL1        0.0276
     59 H          10.6583    2.0291    0.0000 H       1  UNL1        0.0739
     60 H           7.7069    2.2643    0.0000 H       1  UNL1        0.0235
     61 H           6.8617    2.0308    0.0000 H       1  UNL1        0.0235
     62 H           7.0952    1.1857    0.0000 H       1  UNL1        0.0235
     63 H           5.1080    1.0070    0.0000 H       1  UNL1        0.0572
     64 H           9.5706    3.3523    0.0000 H       1  UNL1        0.0301
     65 H           8.7724    3.3431    0.0000 H       1  UNL1        0.0301
     66 H           4.3515    0.0528    0.0000 H       1  UNL1        0.0307
     67 H           3.3942   -2.8772    0.0000 H       1  UNL1        0.0276
     68 H           4.1924   -2.8741    0.0000 H       1  UNL1        0.0276
     69 H           2.8686   -0.1538    0.0000 H       1  UNL1        0.0301
     70 H          10.0793    0.0772    0.0000 H       1  UNL1        0.0236
     71 H          10.9253   -0.1530    0.0000 H       1  UNL1        0.0236
     72 H          11.1555    0.6930    0.0000 H       1  UNL1        0.0236
     73 H          11.1184    0.6292    0.0000 H       1  UNL1        0.0236
     74 H          11.7407    1.2468    0.0000 H       1  UNL1        0.0236
     75 H          11.1231    1.8692    0.0000 H       1  UNL1        0.0236
     76 H           2.2418   -1.7479    0.0000 H       1  UNL1        0.0268
     77 H           2.6383   -2.4407    0.0000 H       1  UNL1        0.0268
     78 H           4.4472    0.7421    0.0000 H       1  UNL1        0.0233
     79 H           3.8393    1.3739    0.0000 H       1  UNL1        0.0233
     80 H           3.2075    0.7660    0.0000 H       1  UNL1        0.0233
     81 H           2.3162    0.2696    0.0000 H       1  UNL1        0.0233
     82 H           1.4667    0.0525    0.0000 H       1  UNL1        0.0233
     83 H           1.6838   -0.7971    0.0000 H       1  UNL1        0.0233
     84 H           7.2570   -3.1690    0.0000 H       1  UNL1        0.0661
     85 H           7.8770   -3.7890    0.0000 H       1  UNL1        0.0661
     86 H           8.4970   -3.1690    0.0000 H       1  UNL1        0.0661
     87 H           3.2216   -4.3399    0.0000 H       1  UNL1        0.0661
     88 H           3.8368   -4.9647    0.0000 H       1  UNL1        0.0661
     89 H           4.4616   -4.3495    0.0000 H       1  UNL1        0.0661
     90 H          12.1572    3.8090    0.0000 H       1  UNL1        0.0342
     91 H          12.3808    4.6568    0.0000 H       1  UNL1        0.0342
     92 H          11.5330    4.8804    0.0000 H       1  UNL1        0.0342
@<TRIPOS>BOND
     1     1    23    1
     2     1    37    1
     3     2    28    1
     4     2    38    1
     5     3    28    2
     6     4    34    1
     7     4    39    1
     8     5    34    2
     9     6    37    2
    10     7     8    1
    11     7    10    1
    12     7    12    1
    13     7    21    1
    14     8     9    1
    15     8    17    1
    16     8    41    1
    17     9    11    1
    18     9    18    1
    19     9    24    1
    20    10    15    1
    21    10    20    1
    22    10    28    1
    23    11    13    1
    24    11    14    1
    25    11    42    1
    26    12    13    1
    27    12    43    1
    28    12    44    1
    29    13    45    1
    30    13    46    1
    31    14    23    1
    32    14    31    1
    33    14    32    1
    34    15    16    1
    35    15    25    2
    36    16    19    1
    37    16    27    1
    38    16    47    1
    39    17    25    1
    40    17    48    1
    41    17    49    1
    42    18    26    1
    43    18    50    1
    44    18    51    1
    45    19    22    1
    46    19    29    1
    47    19    34    1
    48    20    22    1
    49    20    52    1
    50    20    53    1
    51    21    54    1
    52    21    55    1
    53    21    56    1
    54    22    57    1
    55    22    58    1
    56    23    26    1
    57    23    59    1
    58    24    60    1
    59    24    61    1
    60    24    62    1
    61    25    63    1
    62    26    64    1
    63    26    65    1
    64    27    30    1
    65    27    35    1
    66    27    66    1
    67    29    33    1
    68    29    67    1
    69    29    68    1
    70    30    33    1
    71    30    36    1
    72    30    69    1
    73    31    73    1
    74    31    74    1
    75    31    75    1
    76    32    70    1
    77    32    71    1
    78    32    72    1
    79    33    76    1
    80    33    77    1
    81    35    78    1
    82    35    79    1
    83    35    80    1
    84    36    81    1
    85    36    82    1
    86    36    83    1
    87    37    40    1
    88    38    84    1
    89    38    85    1
    90    38    86    1
    91    39    87    1
    92    39    88    1
    93    39    89    1
    94    40    90    1
    95    40    91    1
    96    40    92    1
