@<TRIPOS>MOLECULE
IMPHY007729
 47 52 0 0 0
SMALL
GASTEIGER

@<TRIPOS>ATOM
      1 O           2.0000    1.2214    0.0000 O.3     1  UNL1       -0.3706
      2 O           9.9362   -3.0604    0.0000 O.3     1  UNL1       -0.4526
      3 O          11.2390   -2.0054    0.0000 O.3     1  UNL1       -0.4526
      4 N           6.6965    2.0604    0.0000 N.4     1  UNL1        0.2503
      5 C           7.4331    1.0778    0.0000 C.3     1  UNL1        0.0112
      6 C           7.1743    0.1119    0.0000 C.3     1  UNL1        0.0113
      7 C           5.9533   -0.7538    0.0000 C.3     1  UNL1        0.0204
      8 C           8.8648    0.8802    0.0000 C.3     1  UNL1        0.0205
      9 C           5.3999    0.7667    0.0000 C.ar    1  UNL1        0.0043
     10 C           8.4460   -0.6827    0.0000 C.ar    1  UNL1        0.0076
     11 C           5.1242   -0.1946    0.0000 C.ar    1  UNL1       -0.0329
     12 C           9.2231   -0.0534    0.0000 C.ar    1  UNL1       -0.0295
     13 C           6.6965    3.0604    0.0000 C.3     1  UNL1       -0.0403
     14 C           5.8305    2.5604    0.0000 C.3     1  UNL1       -0.0403
     15 C           4.6880    1.5270    0.0000 C.ar    1  UNL1       -0.0473
     16 C           4.1176   -0.4621    0.0000 C.ar    1  UNL1       -0.0522
     17 C           8.5931   -1.7139    0.0000 C.ar    1  UNL1       -0.0074
     18 C          10.2012   -0.4117    0.0000 C.ar    1  UNL1       -0.0123
     19 C           3.6753    1.2828    0.0000 C.ar    1  UNL1       -0.0161
     20 C           3.3882    0.2816    0.0000 C.ar    1  UNL1       -0.0163
     21 C           9.5626   -2.0947    0.0000 C.ar    1  UNL1        0.1667
     22 C          10.3721   -1.4392    0.0000 C.ar    1  UNL1        0.1665
     23 C           2.8154    1.8596    0.0000 C.3     1  UNL1        0.0734
     24 C           2.3533    0.2481    0.0000 C.3     1  UNL1        0.0734
     25 C          10.9702   -3.0054    0.0000 C.3     1  UNL1        0.2332
     26 H           7.6531    1.8989    0.0000 H       1  UNL1        0.0908
     27 H           6.9543   -0.7091    0.0000 H       1  UNL1        0.0908
     28 H           5.5474   -1.2225    0.0000 H       1  UNL1        0.0372
     29 H           6.3699   -1.2129    0.0000 H       1  UNL1        0.0372
     30 H           9.4726    1.0025    0.0000 H       1  UNL1        0.0372
     31 H           8.8457    1.4999    0.0000 H       1  UNL1        0.0372
     32 H           7.3165    3.0604    0.0000 H       1  UNL1        0.0778
     33 H           6.1405    3.0974    0.0000 H       1  UNL1        0.0778
     34 H           5.2936    2.8704    0.0000 H       1  UNL1        0.0778
     35 H           6.6965    3.6804    0.0000 H       1  UNL1        0.0778
     36 H           6.0765    3.0604    0.0000 H       1  UNL1        0.0778
     37 H           5.5205    2.0235    0.0000 H       1  UNL1        0.0778
     38 H           4.8657    2.1210    0.0000 H       1  UNL1        0.0626
     39 H           3.9536   -1.0600    0.0000 H       1  UNL1        0.0624
     40 H           8.1068   -2.0985    0.0000 H       1  UNL1        0.0660
     41 H          10.6785   -0.0159    0.0000 H       1  UNL1        0.0658
     42 H           3.2130    2.3354    0.0000 H       1  UNL1        0.0610
     43 H           2.3841    2.3050    0.0000 H       1  UNL1        0.0610
     44 H           1.7515    0.0990    0.0000 H       1  UNL1        0.0610
     45 H           2.4384   -0.3660    0.0000 H       1  UNL1        0.0610
     46 H          10.9379   -3.6245    0.0000 H       1  UNL1        0.1166
     47 H          11.5825   -3.1025    0.0000 H       1  UNL1        0.1166
@<TRIPOS>UNITY_ATOM_ATTR
4 1
charge 1
@<TRIPOS>BOND
     1     1    23    1
     2     1    24    1
     3     2    21    1
     4     2    25    1
     5     3    22    1
     6     3    25    1
     7     4     5    1
     8     4     6    1
     9     4    13    1
    10     4    14    1
    11     5     8    1
    12     5     9    1
    13     5    26    1
    14     6     7    1
    15     6    10    1
    16     6    27    1
    17     7    11    1
    18     7    28    1
    19     7    29    1
    20     8    12    1
    21     8    30    1
    22     8    31    1
    23     9    11   ar
    24     9    15   ar
    25    10    12   ar
    26    10    17   ar
    27    11    16   ar
    28    12    18   ar
    29    13    32    1
    30    13    35    1
    31    13    36    1
    32    14    33    1
    33    14    34    1
    34    14    37    1
    35    15    19   ar
    36    15    38    1
    37    16    20   ar
    38    16    39    1
    39    17    21   ar
    40    17    40    1
    41    18    22   ar
    42    18    41    1
    43    19    20   ar
    44    19    23    1
    45    20    24    1
    46    21    22   ar
    47    23    42    1
    48    23    43    1
    49    24    44    1
    50    24    45    1
    51    25    46    1
    52    25    47    1
