@<TRIPOS>MOLECULE
IMPHY005538
 59 59 0 0 0
SMALL
GASTEIGER

@<TRIPOS>ATOM
      1 O          14.9904   -1.2500    0.0000 O.3     1  UNL1       -0.5059
      2 O          14.1244    0.2500    0.0000 O.3     1  UNL1       -0.4770
      3 O          12.3923    0.2500    0.0000 O.2     1  UNL1       -0.2450
      4 C           8.9282   -1.7500    0.0000 C.3     1  UNL1       -0.0530
      5 C           9.7942   -1.2500    0.0000 C.3     1  UNL1       -0.0528
      6 C           8.0622   -1.2500    0.0000 C.3     1  UNL1       -0.0528
      7 C          10.6603   -1.7500    0.0000 C.3     1  UNL1       -0.0490
      8 C           7.1962   -1.7500    0.0000 C.3     1  UNL1       -0.0496
      9 C          11.5263   -1.2500    0.0000 C.3     1  UNL1       -0.0268
     10 C           6.3301   -1.2500    0.0000 C.3     1  UNL1       -0.0348
     11 C           3.7320    0.2500    0.0000 C.3     1  UNL1       -0.0496
     12 C           3.7320    1.2500    0.0000 C.3     1  UNL1       -0.0528
     13 C           4.5981   -0.2500    0.0000 C.3     1  UNL1       -0.0348
     14 C          12.3923   -1.7500    0.0000 C.ar    1  UNL1       -0.0299
     15 C           2.8660    1.7500    0.0000 C.3     1  UNL1       -0.0533
     16 C           5.4641   -1.7500    0.0000 C.2     1  UNL1       -0.0879
     17 C           4.5981   -1.2500    0.0000 C.2     1  UNL1       -0.0879
     18 C           2.8660    2.7500    0.0000 C.3     1  UNL1       -0.0559
     19 C          13.2583   -1.2500    0.0000 C.ar    1  UNL1        0.1032
     20 C          12.3923   -2.7500    0.0000 C.ar    1  UNL1       -0.0576
     21 C           2.0000    3.2500    0.0000 C.3     1  UNL1       -0.0653
     22 C          14.1244   -1.7500    0.0000 C.ar    1  UNL1        0.1311
     23 C          13.2583   -3.2500    0.0000 C.ar    1  UNL1       -0.0580
     24 C          14.1244   -2.7500    0.0000 C.ar    1  UNL1       -0.0193
     25 C          13.2583   -0.2500    0.0000 C.2     1  UNL1        0.3406
     26 H           8.5297   -2.2250    0.0000 H       1  UNL1        0.0265
     27 H           9.3267   -2.2250    0.0000 H       1  UNL1        0.0265
     28 H          10.1928   -0.7751    0.0000 H       1  UNL1        0.0265
     29 H           9.3957   -0.7751    0.0000 H       1  UNL1        0.0265
     30 H           8.4607   -0.7751    0.0000 H       1  UNL1        0.0265
     31 H           7.6636   -0.7751    0.0000 H       1  UNL1        0.0265
     32 H          10.2617   -2.2250    0.0000 H       1  UNL1        0.0268
     33 H          11.0588   -2.2250    0.0000 H       1  UNL1        0.0268
     34 H           6.7976   -2.2250    0.0000 H       1  UNL1        0.0268
     35 H           7.5947   -2.2250    0.0000 H       1  UNL1        0.0268
     36 H          11.9248   -0.7751    0.0000 H       1  UNL1        0.0313
     37 H          11.1278   -0.7751    0.0000 H       1  UNL1        0.0313
     38 H           6.7287   -0.7751    0.0000 H       1  UNL1        0.0307
     39 H           5.9316   -0.7751    0.0000 H       1  UNL1        0.0307
     40 H           3.1215    0.3577    0.0000 H       1  UNL1        0.0268
     41 H           3.5200   -0.3326    0.0000 H       1  UNL1        0.0268
     42 H           4.3426    1.1423    0.0000 H       1  UNL1        0.0265
     43 H           3.9441    1.8326    0.0000 H       1  UNL1        0.0265
     44 H           5.2087   -0.3577    0.0000 H       1  UNL1        0.0307
     45 H           4.8101    0.3326    0.0000 H       1  UNL1        0.0307
     46 H           2.2554    1.8577    0.0000 H       1  UNL1        0.0265
     47 H           2.6540    1.1674    0.0000 H       1  UNL1        0.0265
     48 H           5.4641   -2.3700    0.0000 H       1  UNL1        0.0569
     49 H           4.0611   -1.5600    0.0000 H       1  UNL1        0.0569
     50 H           3.4766    2.6423    0.0000 H       1  UNL1        0.0263
     51 H           3.0781    3.3326    0.0000 H       1  UNL1        0.0263
     52 H          11.8554   -3.0600    0.0000 H       1  UNL1        0.0621
     53 H           2.3100    3.7869    0.0000 H       1  UNL1        0.0230
     54 H           1.4631    3.5600    0.0000 H       1  UNL1        0.0230
     55 H           1.6900    2.7131    0.0000 H       1  UNL1        0.0230
     56 H          13.2583   -3.8700    0.0000 H       1  UNL1        0.0619
     57 H          14.6613   -3.0600    0.0000 H       1  UNL1        0.0654
     58 H          15.5273   -1.5600    0.0000 H       1  UNL1        0.2922
     59 H          14.1244    0.8700    0.0000 H       1  UNL1        0.2954
@<TRIPOS>BOND
     1     1    22    1
     2     1    58    1
     3     2    25    1
     4     2    59    1
     5     3    25    2
     6     4     5    1
     7     4     6    1
     8     4    26    1
     9     4    27    1
    10     5     7    1
    11     5    28    1
    12     5    29    1
    13     6     8    1
    14     6    30    1
    15     6    31    1
    16     7     9    1
    17     7    32    1
    18     7    33    1
    19     8    10    1
    20     8    34    1
    21     8    35    1
    22     9    14    1
    23     9    36    1
    24     9    37    1
    25    10    16    1
    26    10    38    1
    27    10    39    1
    28    11    12    1
    29    11    13    1
    30    11    40    1
    31    11    41    1
    32    12    15    1
    33    12    42    1
    34    12    43    1
    35    13    17    1
    36    13    44    1
    37    13    45    1
    38    14    19   ar
    39    14    20   ar
    40    15    18    1
    41    15    46    1
    42    15    47    1
    43    16    17    2
    44    16    48    1
    45    17    49    1
    46    18    21    1
    47    18    50    1
    48    18    51    1
    49    19    22   ar
    50    19    25    1
    51    20    23   ar
    52    20    52    1
    53    21    53    1
    54    21    54    1
    55    21    55    1
    56    22    24   ar
    57    23    24   ar
    58    23    56    1
    59    24    57    1
