@<TRIPOS>MOLECULE
IMPHY005104
 37 36 0 0 0
SMALL
GASTEIGER

@<TRIPOS>ATOM
      1 P           6.0010   -1.3170    0.0000 P.3     1  UNL1        0.4751
      2 O           6.8671   -0.8170    0.0000 O.3     1  UNL1       -0.2828
      3 O           9.4651   -1.3170    0.0000 O.3     1  UNL1       -0.4557
      4 O           9.4651    0.6830    0.0000 O.3     1  UNL1       -0.4610
      5 O           5.1350   -1.8170    0.0000 O.3     1  UNL1       -0.2854
      6 O           5.5010   -0.4510    0.0000 O.3     1  UNL1       -0.3025
      7 O           6.5010   -2.1830    0.0000 O.2     1  UNL1       -0.2273
      8 O          10.3312    0.1830    0.0000 O.2     1  UNL1       -0.2512
      9 O           8.5991    2.1830    0.0000 O.2     1  UNL1       -0.2512
     10 N           2.5369   -1.3170    0.0000 N.3     1  UNL1       -0.3279
     11 C           8.5991   -0.8170    0.0000 C.3     1  UNL1        0.1605
     12 C           7.7331   -1.3170    0.0000 C.3     1  UNL1        0.0993
     13 C           8.5991    0.1830    0.0000 C.3     1  UNL1        0.1315
     14 C           4.2690   -1.3170    0.0000 C.3     1  UNL1        0.0713
     15 C           3.4030   -1.8170    0.0000 C.3     1  UNL1        0.0172
     16 C          10.3312   -0.8170    0.0000 C.2     1  UNL1        0.3044
     17 C           9.4651    1.6830    0.0000 C.2     1  UNL1        0.3041
     18 C          11.1972   -1.3170    0.0000 C.3     1  UNL1        0.0332
     19 C          10.3312    2.1830    0.0000 C.3     1  UNL1        0.0332
     20 H           8.5991   -1.6670    0.0000 H       1  UNL1        0.0792
     21 H           7.3346   -1.7919    0.0000 H       1  UNL1        0.0604
     22 H           8.1316   -1.7919    0.0000 H       1  UNL1        0.0604
     23 H           8.3871    0.7656    0.0000 H       1  UNL1        0.0736
     24 H           7.9885    0.0754    0.0000 H       1  UNL1        0.0736
     25 H           4.6675   -0.8420    0.0000 H       1  UNL1        0.0578
     26 H           3.8705   -0.8420    0.0000 H       1  UNL1        0.0578
     27 H           3.0044   -2.2919    0.0000 H       1  UNL1        0.0444
     28 H           3.8015   -2.2919    0.0000 H       1  UNL1        0.0444
     29 H          10.8872   -1.8539    0.0000 H       1  UNL1        0.0342
     30 H          11.7341   -1.6270    0.0000 H       1  UNL1        0.0342
     31 H          11.5072   -0.7801    0.0000 H       1  UNL1        0.0342
     32 H           5.8110    0.0860    0.0000 H       1  UNL1        0.2220
     33 H           2.0000   -1.6270    0.0000 H       1  UNL1        0.1183
     34 H           2.5369   -0.6970    0.0000 H       1  UNL1        0.1183
     35 H          10.6412    1.6461    0.0000 H       1  UNL1        0.0342
     36 H          10.8681    2.4930    0.0000 H       1  UNL1        0.0342
     37 H          10.0212    2.7200    0.0000 H       1  UNL1        0.0342
@<TRIPOS>BOND
     1     1     2    1
     2     1     5    1
     3     1     6    1
     4     1     7    2
     5     2    12    1
     6     3    11    1
     7     3    16    1
     8     4    13    1
     9     4    17    1
    10     5    14    1
    11     6    32    1
    12     8    16    2
    13     9    17    2
    14    10    15    1
    15    10    33    1
    16    10    34    1
    17    11    12    1
    18    11    13    1
    19    11    20    1
    20    12    21    1
    21    12    22    1
    22    13    23    1
    23    13    24    1
    24    14    15    1
    25    14    25    1
    26    14    26    1
    27    15    27    1
    28    15    28    1
    29    16    18    1
    30    17    19    1
    31    18    29    1
    32    18    30    1
    33    18    31    1
    34    19    35    1
    35    19    36    1
    36    19    37    1
