@<TRIPOS>MOLECULE
IMPHY002979
 57 59 0 0 0
SMALL
GASTEIGER

@<TRIPOS>ATOM
      1 O           5.1350   -0.3450    0.0000 O.3     1  UNL1       -0.3313
      2 O           6.8671   -0.3450    0.0000 O.3     1  UNL1       -0.4600
      3 O           5.1350   -3.3450    0.0000 O.3     1  UNL1       -0.3864
      4 O           3.4030   -2.3450    0.0000 O.3     1  UNL1       -0.3865
      5 O           6.8671   -2.3450    0.0000 O.3     1  UNL1       -0.3829
      6 O           2.5369   -0.8450    0.0000 O.3     1  UNL1       -0.3924
      7 O           5.1350    2.6550    0.0000 O.3     1  UNL1       -0.4950
      8 O           8.5991   -0.3450    0.0000 O.2     1  UNL1       -0.2919
      9 O          13.7953    2.6550    0.0000 O.3     1  UNL1       -0.5068
     10 C           5.1350   -2.3450    0.0000 C.3     1  UNL1        0.1152
     11 C           4.2690   -1.8450    0.0000 C.3     1  UNL1        0.1120
     12 C           6.0010   -1.8450    0.0000 C.3     1  UNL1        0.1454
     13 C           4.2690   -0.8450    0.0000 C.3     1  UNL1        0.1140
     14 C           6.0010   -0.8450    0.0000 C.3     1  UNL1        0.2308
     15 C           3.4030   -0.3450    0.0000 C.3     1  UNL1        0.0731
     16 C           6.8671    0.6550    0.0000 C.ar    1  UNL1        0.1379
     17 C           7.7331    1.1550    0.0000 C.ar    1  UNL1        0.0593
     18 C           6.0010    1.1550    0.0000 C.ar    1  UNL1        0.0226
     19 C           8.5991    0.6550    0.0000 C.2     1  UNL1        0.1670
     20 C           9.4651    1.1550    0.0000 C.3     1  UNL1        0.0146
     21 C           7.7331    2.1550    0.0000 C.ar    1  UNL1       -0.0443
     22 C           6.0010    2.1550    0.0000 C.ar    1  UNL1        0.1236
     23 C          10.3312    0.6550    0.0000 C.3     1  UNL1       -0.0207
     24 C           6.8671    2.6550    0.0000 C.ar    1  UNL1       -0.0191
     25 C          11.1972    1.1550    0.0000 C.ar    1  UNL1       -0.0467
     26 C          12.0632    0.6550    0.0000 C.ar    1  UNL1       -0.0551
     27 C          11.1972    2.1550    0.0000 C.ar    1  UNL1       -0.0551
     28 C          12.9292    1.1550    0.0000 C.ar    1  UNL1       -0.0199
     29 C          12.0632    2.6550    0.0000 C.ar    1  UNL1       -0.0199
     30 C          12.9292    2.1550    0.0000 C.ar    1  UNL1        0.1169
     31 C           5.1350    3.6550    0.0000 C.3     1  UNL1        0.0788
     32 H           5.6720   -2.6550    0.0000 H       1  UNL1        0.0648
     33 H           4.2690   -2.4650    0.0000 H       1  UNL1        0.0647
     34 H           6.5380   -1.5350    0.0000 H       1  UNL1        0.0683
     35 H           4.2690   -0.2250    0.0000 H       1  UNL1        0.0647
     36 H           6.0010   -0.2250    0.0000 H       1  UNL1        0.1084
     37 H           3.8015    0.1299    0.0000 H       1  UNL1        0.0584
     38 H           3.0044    0.1299    0.0000 H       1  UNL1        0.0584
     39 H           4.5981   -3.6550    0.0000 H       1  UNL1        0.2100
     40 H           3.4030   -2.9650    0.0000 H       1  UNL1        0.2100
     41 H           6.8671   -2.9650    0.0000 H       1  UNL1        0.2102
     42 H           2.0000   -0.5350    0.0000 H       1  UNL1        0.2095
     43 H           5.4641    0.8450    0.0000 H       1  UNL1        0.0691
     44 H           9.8637    1.6300    0.0000 H       1  UNL1        0.0348
     45 H           9.0666    1.6300    0.0000 H       1  UNL1        0.0348
     46 H           8.2700    2.4650    0.0000 H       1  UNL1        0.0627
     47 H           9.9326    0.1801    0.0000 H       1  UNL1        0.0317
     48 H          10.7297    0.1801    0.0000 H       1  UNL1        0.0317
     49 H           6.8671    3.2750    0.0000 H       1  UNL1        0.0654
     50 H          12.0632    0.0350    0.0000 H       1  UNL1        0.0621
     51 H          10.6603    2.4650    0.0000 H       1  UNL1        0.0621
     52 H          13.4662    0.8450    0.0000 H       1  UNL1        0.0654
     53 H          12.0632    3.2750    0.0000 H       1  UNL1        0.0654
     54 H           5.7550    3.6550    0.0000 H       1  UNL1        0.0660
     55 H           5.1350    4.2750    0.0000 H       1  UNL1        0.0660
     56 H           4.5150    3.6550    0.0000 H       1  UNL1        0.0660
     57 H          14.3322    2.3450    0.0000 H       1  UNL1        0.2921
@<TRIPOS>BOND
     1     1    13    1
     2     1    14    1
     3     2    14    1
     4     2    16    1
     5     3    10    1
     6     3    39    1
     7     4    11    1
     8     4    40    1
     9     5    12    1
    10     5    41    1
    11     6    15    1
    12     6    42    1
    13     7    22    1
    14     7    31    1
    15     8    19    2
    16     9    30    1
    17     9    57    1
    18    10    11    1
    19    10    12    1
    20    10    32    1
    21    11    13    1
    22    11    33    1
    23    12    14    1
    24    12    34    1
    25    13    15    1
    26    13    35    1
    27    14    36    1
    28    15    37    1
    29    15    38    1
    30    16    17   ar
    31    16    18   ar
    32    17    19    1
    33    17    21   ar
    34    18    22   ar
    35    18    43    1
    36    19    20    1
    37    20    23    1
    38    20    44    1
    39    20    45    1
    40    21    24   ar
    41    21    46    1
    42    22    24   ar
    43    23    25    1
    44    23    47    1
    45    23    48    1
    46    24    49    1
    47    25    26   ar
    48    25    27   ar
    49    26    28   ar
    50    26    50    1
    51    27    29   ar
    52    27    51    1
    53    28    30   ar
    54    28    52    1
    55    29    30   ar
    56    29    53    1
    57    31    54    1
    58    31    55    1
    59    31    56    1
