@<TRIPOS>MOLECULE
IMPHY003911
 74 79 0 0 0
SMALL
GASTEIGER

@<TRIPOS>ATOM
      1 O           8.4896    3.7131    0.0000 O.3     1  UNL1       -0.3870
      2 O           2.0000    0.0368    0.0000 O.2     1  UNL1       -0.2971
      3 O           2.6318   -3.6812    0.0000 O.3     1  UNL1       -0.3918
      4 N           8.9057    1.2859    0.0000 N.3     1  UNL1       -0.2961
      5 C           6.2397    0.8067    0.0000 C.3     1  UNL1       -0.0333
      6 C           5.3737    1.3067    0.0000 C.3     1  UNL1       -0.0344
      7 C           5.0418   -0.2682    0.0000 C.3     1  UNL1       -0.0312
      8 C           4.6367    0.6396    0.0000 C.3     1  UNL1       -0.0279
      9 C           7.1057    1.3067    0.0000 C.3     1  UNL1       -0.0197
     10 C           6.0305   -0.1651    0.0000 C.3     1  UNL1       -0.0460
     11 C           4.4469   -1.1157    0.0000 C.3     1  UNL1       -0.0193
     12 C           7.1057    2.3067    0.0000 C.3     1  UNL1       -0.0067
     13 C           5.3737    2.3067    0.0000 C.3     1  UNL1       -0.0493
     14 C           3.4162   -1.0163    0.0000 C.3     1  UNL1        0.0255
     15 C           6.2397    2.8067    0.0000 C.3     1  UNL1       -0.0470
     16 C           7.9997    2.8414    0.0000 C.3     1  UNL1        0.0818
     17 C           3.6086    0.7628    0.0000 C.3     1  UNL1        0.0095
     18 C           7.9997    0.7720    0.0000 C.3     1  UNL1        0.0027
     19 C           8.9057    2.3275    0.0000 C.3     1  UNL1        0.0392
     20 C           4.9091   -2.0902    0.0000 C.3     1  UNL1       -0.0444
     21 C           2.9942   -0.0707    0.0000 C.2     1  UNL1        0.1373
     22 C           5.4422   -1.2117    0.0000 C.3     1  UNL1       -0.0587
     23 C           2.7763   -1.8845    0.0000 C.3     1  UNL1       -0.0168
     24 C           4.2894   -2.9730    0.0000 C.3     1  UNL1       -0.0263
     25 C           3.2158   -2.8694    0.0000 C.3     1  UNL1        0.0559
     26 C           9.8369    2.8844    0.0000 C.3     1  UNL1       -0.0344
     27 C           9.8369    0.7290    0.0000 C.3     1  UNL1        0.0019
     28 C           7.4897    3.7016    0.0000 C.3     1  UNL1       -0.0343
     29 C          10.7807    1.2642    0.0000 C.3     1  UNL1       -0.0310
     30 C          10.7807    2.3492    0.0000 C.3     1  UNL1       -0.0478
     31 C          11.6448    0.7609    0.0000 C.3     1  UNL1       -0.0613
     32 H           6.9267    0.3062    0.0000 H       1  UNL1        0.0307
     33 H           4.5967    1.6514    0.0000 H       1  UNL1        0.0306
     34 H           5.4724   -1.0010    0.0000 H       1  UNL1        0.0309
     35 H           4.3788    1.4496    0.0000 H       1  UNL1        0.0310
     36 H           7.0992    0.4567    0.0000 H       1  UNL1        0.0319
     37 H           6.0296   -0.7851    0.0000 H       1  UNL1        0.0271
     38 H           6.6470   -0.2312    0.0000 H       1  UNL1        0.0271
     39 H           7.0992    3.1567    0.0000 H       1  UNL1        0.0332
     40 H           5.1616    2.8893    0.0000 H       1  UNL1        0.0268
     41 H           4.7631    2.1990    0.0000 H       1  UNL1        0.0268
     42 H           2.5711   -0.9249    0.0000 H       1  UNL1        0.0384
     43 H           6.6382    3.2816    0.0000 H       1  UNL1        0.0269
     44 H           5.8412    3.2816    0.0000 H       1  UNL1        0.0269
     45 H           3.7866    1.3567    0.0000 H       1  UNL1        0.0345
     46 H           3.0539    1.0398    0.0000 H       1  UNL1        0.0345
     47 H           7.5951    0.3023    0.0000 H       1  UNL1        0.0429
     48 H           8.3933    0.2930    0.0000 H       1  UNL1        0.0429
     49 H           8.8959    3.1775    0.0000 H       1  UNL1        0.0491
     50 H           5.3481   -2.5280    0.0000 H       1  UNL1        0.0272
     51 H           5.4155   -1.7326    0.0000 H       1  UNL1        0.0272
     52 H           5.3827   -1.8288    0.0000 H       1  UNL1        0.0235
     53 H           6.0594   -1.2712    0.0000 H       1  UNL1        0.0235
     54 H           5.5018   -0.5945    0.0000 H       1  UNL1        0.0235
     55 H           2.3475   -1.4367    0.0000 H       1  UNL1        0.0297
     56 H           2.2617   -2.2303    0.0000 H       1  UNL1        0.0297
     57 H           4.1252   -3.5708    0.0000 H       1  UNL1        0.0290
     58 H           4.8503   -3.2371    0.0000 H       1  UNL1        0.0290
     59 H           2.5990   -2.8064    0.0000 H       1  UNL1        0.0593
     60 H          10.2305    3.3634    0.0000 H       1  UNL1        0.0281
     61 H           9.4323    3.3542    0.0000 H       1  UNL1        0.0281
     62 H           9.4323    0.2592    0.0000 H       1  UNL1        0.0429
     63 H          10.2305    0.2499    0.0000 H       1  UNL1        0.0429
     64 H           8.0230    4.0177    0.0000 H       1  UNL1        0.0258
     65 H           7.1735    4.2349    0.0000 H       1  UNL1        0.0258
     66 H           6.9564    3.3854    0.0000 H       1  UNL1        0.0258
     67 H          10.7771    0.6442    0.0000 H       1  UNL1        0.0310
     68 H          11.3915    2.2431    0.0000 H       1  UNL1        0.0269
     69 H          10.9897    2.9329    0.0000 H       1  UNL1        0.0269
     70 H           8.1734    4.2464    0.0000 H       1  UNL1        0.2102
     71 H          11.3327    0.2251    0.0000 H       1  UNL1        0.0233
     72 H          12.1805    0.4488    0.0000 H       1  UNL1        0.0233
     73 H          11.9568    1.2966    0.0000 H       1  UNL1        0.0233
     74 H           2.8867   -4.2464    0.0000 H       1  UNL1        0.2098
@<TRIPOS>BOND
     1    16     1    1
     2     1    70    1
     3     2    21    2
     4    25     3    1
     5     3    74    1
     6     4    18    1
     7     4    19    1
     8     4    27    1
     9     5     6    1
    10     5     9    1
    11     5    10    1
    12     5    32    1
    13     6     8    1
    14     6    13    1
    15     6    33    1
    16     7     8    1
    17     7    10    1
    18     7    11    1
    19     7    34    1
    20     8    17    1
    21     8    35    1
    22     9    12    1
    23     9    18    1
    24     9    36    1
    25    10    37    1
    26    10    38    1
    27    11    14    1
    28    11    20    1
    29    11    22    1
    30    12    15    1
    31    12    16    1
    32    12    39    1
    33    13    15    1
    34    13    40    1
    35    13    41    1
    36    14    21    1
    37    14    23    1
    38    14    42    1
    39    15    43    1
    40    15    44    1
    41    16    19    1
    42    16    28    1
    43    17    21    1
    44    17    45    1
    45    17    46    1
    46    18    47    1
    47    18    48    1
    48    19    26    1
    49    19    49    1
    50    20    24    1
    51    20    50    1
    52    20    51    1
    53    22    52    1
    54    22    53    1
    55    22    54    1
    56    23    25    1
    57    23    55    1
    58    23    56    1
    59    24    25    1
    60    24    57    1
    61    24    58    1
    62    25    59    1
    63    26    30    1
    64    26    60    1
    65    26    61    1
    66    27    29    1
    67    27    62    1
    68    27    63    1
    69    28    64    1
    70    28    65    1
    71    28    66    1
    72    29    30    1
    73    29    31    1
    74    29    67    1
    75    30    68    1
    76    30    69    1
    77    31    71    1
    78    31    72    1
    79    31    73    1
