@<TRIPOS>MOLECULE
IMPHY000472
 39 43 0 0 0
SMALL
GASTEIGER

@<TRIPOS>ATOM
      1 C           6.1822    4.9433    0.0000 C.3     1  UNL1        0.2138
      2 C           5.2369    4.6372    0.0000 C.3     1  UNL1        0.0594
      3 C           7.0558    5.4467    0.0000 C.2     1  UNL1        0.0770
      4 C           6.7671    4.1387    0.0000 C.2     1  UNL1        0.2125
      5 O           5.9378    5.9206    0.0000 O.3     1  UNL1       -0.4438
      6 C           5.2369    3.6402    0.0000 C.2     1  UNL1       -0.0351
      7 C           4.3682    5.1456    0.0000 C.3     1  UNL1        0.0079
      8 C           5.3455    5.6367    0.0000 C.3     1  UNL1        0.0083
      9 C           7.9788    5.0420    0.0000 C.3     1  UNL1        0.3437
     10 C           7.1693    6.4684    0.0000 C.2     1  UNL1        0.0833
     11 C           6.1822    3.3342    0.0000 C.2     1  UNL1        0.0331
     12 O           7.7740    4.1387    0.0000 O.2     1  UNL1       -0.2873
     13 C           6.2167    6.8905    0.0000 C.2     1  UNL1        0.3180
     14 C           4.3682    3.1318    0.0000 C.3     1  UNL1        0.0525
     15 C           3.5020    4.6372    0.0000 C.3     1  UNL1        0.0012
     16 O           8.6377    5.7972    0.0000 O.3     1  UNL1       -0.4153
     17 O           8.1985    4.0597    0.0000 O.3     1  UNL1       -0.1695
     18 C           8.1318    6.6757    0.0000 C.2     1  UNL1        0.3432
     19 O           5.5158    7.6136    0.0000 O.2     1  UNL1       -0.2501
     20 C           6.9003    7.0607    0.0000 C.3     1  UNL1        0.1212
     21 C           3.5020    3.6402    0.0000 C.3     1  UNL1        0.0106
     22 C           4.3682    2.1372    0.0000 C.3     1  UNL1        0.1720
     23 C           4.3682    4.1757    0.0000 C.3     1  UNL1        0.0077
     24 O           8.5366    7.6037    0.0000 O.2     1  UNL1       -0.2448
     25 C           2.6357    3.1318    0.0000 C.3     1  UNL1        0.0196
     26 C           3.5020    1.6264    0.0000 C.3     1  UNL1        0.0447
     27 O           5.2443    1.6362    0.0000 O.3     1  UNL1       -0.4519
     28 C           2.6357    2.1101    0.0000 C.3     1  UNL1        0.0142
     29 C           1.7695    3.6402    0.0000 C.2     1  UNL1       -0.0238
     30 C           2.6357    4.1412    0.0000 C.3     1  UNL1        0.0044
     31 C           5.0741    0.6441    0.0000 C.2     1  UNL1        0.3174
     32 C           1.7695    1.5992    0.0000 C.3     1  UNL1        0.0559
     33 C           0.8761    3.1318    0.0000 C.2     1  UNL1        0.0328
     34 O           5.8490    0.0000    0.0000 O.2     1  UNL1       -0.2501
     35 C           4.1264    0.2937    0.0000 C.3     1  UNL1        0.1212
     36 C           0.8761    2.1372    0.0000 C.2     1  UNL1        0.1720
     37 C           1.1130    0.8342    0.0000 C.3     1  UNL1        0.0077
     38 C           2.4161    0.8268    0.0000 C.3     1  UNL1        0.0077
     39 O           0.0000    1.6412    0.0000 O.2     1  UNL1       -0.2914
@<TRIPOS>BOND
     1     1     2    1
     2     1     3    1
     3     1     4    1
     4     1     5    1
     5     2     6    1
     6     2     7    1
     7     2     8    1
     8     3     9    1
     9     3    10    2
    10     4    11    1
    11     4    12    2
    12     5    13    1
    13     6    11    2
    14     6    14    1
    15     7    15    1
    16     9    16    1
    17     9    17    1
    18    10    18    1
    19    13    19    2
    20    13    20    1
    21    14    21    1
    22    14    22    1
    23    14    23    1
    24    15    21    1
    25    16    18    1
    26    18    24    2
    27    21    25    1
    28    22    26    1
    29    22    27    1
    30    25    28    1
    31    25    29    1
    32    25    30    1
    33    26    28    1
    34    27    31    1
    35    28    32    1
    36    29    33    2
    37    31    34    2
    38    31    35    1
    39    32    36    1
    40    32    37    1
    41    32    38    1
    42    33    36    1
    43    36    39    2
