@<TRIPOS>MOLECULE
IMPHY009079
 57 61 0 0 0
SMALL
GASTEIGER

@<TRIPOS>ATOM
      1 O           8.4073   -2.9996    0.0000 O.3     1  UNL1       -0.4608
      2 O          10.1763   -2.9130    0.0000 O.2     1  UNL1       -0.2505
      3 O           2.0000    2.3796    0.0000 O.3     1  UNL1       -0.3915
      4 C           7.3399   -0.7648    0.0000 C.3     1  UNL1       -0.0219
      5 C           6.4739   -1.2648    0.0000 C.3     1  UNL1       -0.0285
      6 C           5.6079   -0.7648    0.0000 C.3     1  UNL1       -0.0305
      7 C           8.0770   -1.4319    0.0000 C.3     1  UNL1        0.0144
      8 C           5.6079    0.2352    0.0000 C.3     1  UNL1       -0.0285
      9 C           6.6831   -2.2366    0.0000 C.3     1  UNL1       -0.0118
     10 C           7.6718   -2.3396    0.0000 C.3     1  UNL1        0.1074
     11 C           7.3399    0.2352    0.0000 C.3     1  UNL1       -0.0467
     12 C           4.7140    0.7699    0.0000 C.3     1  UNL1       -0.0078
     13 C           6.4739    0.7352    0.0000 C.3     1  UNL1       -0.0486
     14 C           9.0594   -1.5386    0.0000 C.3     1  UNL1        0.0603
     15 C           4.7140   -1.2994    0.0000 C.3     1  UNL1       -0.0311
     16 C           8.2060   -0.2648    0.0000 C.3     1  UNL1       -0.0589
     17 C           3.8079    0.2560    0.0000 C.2     1  UNL1       -0.0648
     18 C           4.7390    1.8546    0.0000 C.3     1  UNL1       -0.0413
     19 C           3.8079   -0.7856    0.0000 C.2     1  UNL1       -0.0839
     20 C           9.2632   -2.5055    0.0000 C.2     1  UNL1        0.3106
     21 C           5.5838    1.2632    0.0000 C.3     1  UNL1       -0.0556
     22 C           2.8641    0.7913    0.0000 C.3     1  UNL1       -0.0051
     23 C           3.8079    2.4115    0.0000 C.3     1  UNL1       -0.0258
     24 C           9.7304   -0.7971    0.0000 C.3     1  UNL1       -0.0519
     25 C           2.8641    1.8763    0.0000 C.3     1  UNL1        0.0590
     26 H           5.7869   -1.7653    0.0000 H       1  UNL1        0.0310
     27 H           5.6144   -1.6147    0.0000 H       1  UNL1        0.0310
     28 H           8.4250   -0.6564    0.0000 H       1  UNL1        0.0350
     29 H           6.3440   -0.1898    0.0000 H       1  UNL1        0.0312
     30 H           6.0666   -2.3026    0.0000 H       1  UNL1        0.0304
     31 H           6.6840   -2.8566    0.0000 H       1  UNL1        0.0304
     32 H           7.3271   -3.1166    0.0000 H       1  UNL1        0.0737
     33 H           7.9505    0.1276    0.0000 H       1  UNL1        0.0271
     34 H           7.5520    0.8178    0.0000 H       1  UNL1        0.0271
     35 H           6.8724    1.2102    0.0000 H       1  UNL1        0.0268
     36 H           6.0754    1.2102    0.0000 H       1  UNL1        0.0268
     37 H           8.8389   -0.9591    0.0000 H       1  UNL1        0.0415
     38 H           4.3203   -1.7784    0.0000 H       1  UNL1        0.0310
     39 H           5.1185   -1.7692    0.0000 H       1  UNL1        0.0310
     40 H           8.5160   -0.8017    0.0000 H       1  UNL1        0.0235
     41 H           8.7429    0.0452    0.0000 H       1  UNL1        0.0235
     42 H           7.8960    0.2722    0.0000 H       1  UNL1        0.0235
     43 H           5.3473    1.7344    0.0000 H       1  UNL1        0.0274
     44 H           4.9615    2.4333    0.0000 H       1  UNL1        0.0274
     45 H           3.2721   -1.0977    0.0000 H       1  UNL1        0.0572
     46 H           5.8896    0.7239    0.0000 H       1  UNL1        0.0238
     47 H           6.1231    1.5690    0.0000 H       1  UNL1        0.0238
     48 H           5.2780    1.8025    0.0000 H       1  UNL1        0.0238
     49 H           2.2532    0.8974    0.0000 H       1  UNL1        0.0335
     50 H           2.6550    0.2076    0.0000 H       1  UNL1        0.0335
     51 H           4.2125    2.8813    0.0000 H       1  UNL1        0.0290
     52 H           3.4142    2.8905    0.0000 H       1  UNL1        0.0290
     53 H          10.1901   -1.2132    0.0000 H       1  UNL1        0.0238
     54 H          10.1465   -0.3375    0.0000 H       1  UNL1        0.0238
     55 H           9.2708   -0.3811    0.0000 H       1  UNL1        0.0238
     56 H           2.8677    2.4963    0.0000 H       1  UNL1        0.0596
     57 H           2.0024    2.9996    0.0000 H       1  UNL1        0.2098
@<TRIPOS>BOND
     1     1    10    1
     2     1    20    1
     3     2    20    2
     4    25     3    1
     5     3    57    1
     6     4     5    1
     7     4     7    1
     8     4    11    1
     9     4    16    1
    10     5     6    1
    11     5     9    1
    12     5    26    1
    13     6     8    1
    14     6    15    1
    15     6    27    1
    16     7    10    1
    17     7    14    1
    18     7    28    1
    19     8    12    1
    20     8    13    1
    21     8    29    1
    22     9    10    1
    23     9    30    1
    24     9    31    1
    25    10    32    1
    26    11    13    1
    27    11    33    1
    28    11    34    1
    29    12    17    1
    30    12    18    1
    31    12    21    1
    32    13    35    1
    33    13    36    1
    34    14    20    1
    35    14    24    1
    36    14    37    1
    37    15    19    1
    38    15    38    1
    39    15    39    1
    40    16    40    1
    41    16    41    1
    42    16    42    1
    43    17    19    2
    44    17    22    1
    45    18    23    1
    46    18    43    1
    47    18    44    1
    48    19    45    1
    49    21    46    1
    50    21    47    1
    51    21    48    1
    52    22    25    1
    53    22    49    1
    54    22    50    1
    55    23    25    1
    56    23    51    1
    57    23    52    1
    58    24    53    1
    59    24    54    1
    60    24    55    1
    61    25    56    1
