@<TRIPOS>MOLECULE
IMPHY005740
 57 59 0 0 0
SMALL
GASTEIGER

@<TRIPOS>ATOM
      1 O          11.5542   -0.6193    0.0000 O.2     1  UNL1       -0.4542
      2 O           9.7942    2.4154    0.0000 O.3     1  UNL1       -0.5055
      3 O           8.0622   -0.5846    0.0000 O.3     1  UNL1       -0.5062
      4 O          11.5426    2.4500    0.0000 O.2     1  UNL1       -0.2869
      5 O          12.4526   -2.1054    0.0000 O.3     1  UNL1       -0.5059
      6 O          15.9166   -2.1188    0.0000 O.3     1  UNL1       -0.5066
      7 C           8.9282    0.9154    0.0000 C.ar    1  UNL1        0.0400
      8 C           8.0622    1.4154    0.0000 C.3     1  UNL1       -0.0023
      9 C          10.6603    0.9154    0.0000 C.ar    1  UNL1        0.1057
     10 C           9.7942    1.4154    0.0000 C.ar    1  UNL1        0.1381
     11 C           5.4641    0.9154    0.0000 C.3     1  UNL1       -0.0286
     12 C           6.3301    1.4154    0.0000 C.2     1  UNL1       -0.0759
     13 C          10.6603   -0.0846    0.0000 C.ar    1  UNL1        0.1463
     14 C           7.1962    0.9154    0.0000 C.2     1  UNL1       -0.0805
     15 C           8.9282   -0.0846    0.0000 C.ar    1  UNL1        0.1273
     16 C           4.5981    1.4154    0.0000 C.3     1  UNL1       -0.0308
     17 C           9.7942   -0.5846    0.0000 C.ar    1  UNL1        0.0234
     18 C          11.5542    1.4501    0.0000 C.ar    1  UNL1        0.1966
     19 C          12.4603   -0.1054    0.0000 C.ar    1  UNL1        0.1427
     20 C           6.3301    2.4154    0.0000 C.3     1  UNL1       -0.0438
     21 C          12.4603    0.9362    0.0000 C.ar    1  UNL1        0.0289
     22 C           3.7320    0.9154    0.0000 C.2     1  UNL1       -0.0850
     23 C          13.3244   -0.6088    0.0000 C.ar    1  UNL1        0.0590
     24 C           2.8660    1.4154    0.0000 C.2     1  UNL1       -0.0796
     25 C          13.3205   -1.6087    0.0000 C.ar    1  UNL1        0.1310
     26 C          14.1923   -0.1121    0.0000 C.ar    1  UNL1       -0.0441
     27 C           2.0000    0.9154    0.0000 C.3     1  UNL1       -0.0440
     28 C           2.8660    2.4154    0.0000 C.3     1  UNL1       -0.0440
     29 C          14.1846   -2.1121    0.0000 C.ar    1  UNL1        0.0220
     30 C          15.0564   -0.6154    0.0000 C.ar    1  UNL1       -0.0193
     31 C          15.0525   -1.6154    0.0000 C.ar    1  UNL1        0.1204
     32 H           8.4607    1.8904    0.0000 H       1  UNL1        0.0358
     33 H           7.6636    1.8904    0.0000 H       1  UNL1        0.0358
     34 H           5.0656    0.4404    0.0000 H       1  UNL1        0.0313
     35 H           5.8626    0.4404    0.0000 H       1  UNL1        0.0313
     36 H           7.1962    0.2954    0.0000 H       1  UNL1        0.0575
     37 H           4.9966    1.8904    0.0000 H       1  UNL1        0.0310
     38 H           4.1996    1.8904    0.0000 H       1  UNL1        0.0310
     39 H           9.7942   -1.2046    0.0000 H       1  UNL1        0.0691
     40 H           6.9501    2.4154    0.0000 H       1  UNL1        0.0274
     41 H           6.3301    3.0354    0.0000 H       1  UNL1        0.0274
     42 H           5.7101    2.4154    0.0000 H       1  UNL1        0.0274
     43 H          12.9960    1.2483    0.0000 H       1  UNL1        0.0693
     44 H           3.7320    0.2954    0.0000 H       1  UNL1        0.0572
     45 H           9.2573    2.7254    0.0000 H       1  UNL1        0.2922
     46 H          14.1947    0.5079    0.0000 H       1  UNL1        0.0627
     47 H           8.0622   -1.2046    0.0000 H       1  UNL1        0.2921
     48 H           1.6900    1.4523    0.0000 H       1  UNL1        0.0274
     49 H           3.4860    2.4154    0.0000 H       1  UNL1        0.0274
     50 H           2.8660    3.0354    0.0000 H       1  UNL1        0.0274
     51 H           2.2460    2.4154    0.0000 H       1  UNL1        0.0274
     52 H           1.4631    0.6054    0.0000 H       1  UNL1        0.0274
     53 H           2.3100    0.3785    0.0000 H       1  UNL1        0.0274
     54 H          14.1822   -2.7321    0.0000 H       1  UNL1        0.0691
     55 H          15.5945   -0.3075    0.0000 H       1  UNL1        0.0654
     56 H          12.4502   -2.7254    0.0000 H       1  UNL1        0.2922
     57 H          16.4548   -1.8108    0.0000 H       1  UNL1        0.2921
@<TRIPOS>BOND
     1     1    13   ar
     2     1    19   ar
     3     2    10    1
     4     2    45    1
     5     3    15    1
     6     3    47    1
     7     4    18    2
     8     5    25    1
     9     5    56    1
    10     6    31    1
    11     6    57    1
    12     7     8    1
    13     7    10   ar
    14     7    15   ar
    15     8    14    1
    16     8    32    1
    17     8    33    1
    18     9    10   ar
    19     9    13   ar
    20     9    18   ar
    21    11    12    1
    22    11    16    1
    23    11    34    1
    24    11    35    1
    25    12    14    2
    26    12    20    1
    27    13    17   ar
    28    14    36    1
    29    15    17   ar
    30    16    22    1
    31    16    37    1
    32    16    38    1
    33    17    39    1
    34    18    21   ar
    35    19    21   ar
    36    19    23    1
    37    20    40    1
    38    20    41    1
    39    20    42    1
    40    21    43    1
    41    22    24    2
    42    22    44    1
    43    23    25   ar
    44    23    26   ar
    45    24    27    1
    46    24    28    1
    47    25    29   ar
    48    26    30   ar
    49    26    46    1
    50    27    48    1
    51    27    52    1
    52    27    53    1
    53    28    49    1
    54    28    50    1
    55    28    51    1
    56    29    31   ar
    57    29    54    1
    58    30    31   ar
    59    30    55    1
