@<TRIPOS>MOLECULE
IMPHY017139
 18 18 0 0 0
SMALL
GASTEIGER

@<TRIPOS>ATOM
      1 S           3.0878   -1.1739    0.0000 S.2     1  UNL1       -0.1013
      2 C           3.5878    0.3649    0.0000 C.ar    1  UNL1       -0.0376
      3 C           2.5878    0.3649    0.0000 C.ar    1  UNL1       -0.0403
      4 C           3.8968   -0.5861    0.0000 C.ar    1  UNL1       -0.0101
      5 C           2.2788   -0.5861    0.0000 C.ar    1  UNL1       -0.0209
      6 C           4.1756    1.1739    0.0000 C.3     1  UNL1       -0.0387
      7 C           2.0000    1.1739    0.0000 C.3     1  UNL1       -0.0389
      8 C           4.8479   -0.8952    0.0000 C.3     1  UNL1       -0.0332
      9 H           1.6891   -0.7777    0.0000 H       1  UNL1        0.0696
     10 H           4.6772    0.8095    0.0000 H       1  UNL1        0.0278
     11 H           4.5400    1.6755    0.0000 H       1  UNL1        0.0278
     12 H           3.6740    1.5384    0.0000 H       1  UNL1        0.0278
     13 H           2.5016    1.5384    0.0000 H       1  UNL1        0.0278
     14 H           1.6356    1.6755    0.0000 H       1  UNL1        0.0278
     15 H           1.4984    0.8095    0.0000 H       1  UNL1        0.0278
     16 H           4.6563   -1.4848    0.0000 H       1  UNL1        0.0283
     17 H           5.4375   -1.0868    0.0000 H       1  UNL1        0.0283
     18 H           5.0395   -0.3055    0.0000 H       1  UNL1        0.0283
@<TRIPOS>BOND
     1     1     4   ar
     2     1     5   ar
     3     2     3   ar
     4     2     4   ar
     5     2     6    1
     6     3     5   ar
     7     3     7    1
     8     4     8    1
     9     5     9    1
    10     6    10    1
    11     6    11    1
    12     6    12    1
    13     7    13    1
    14     7    14    1
    15     7    15    1
    16     8    16    1
    17     8    17    1
    18     8    18    1
