@<TRIPOS>MOLECULE
IMPHY008536
 34 34 0 0 0
SMALL
GASTEIGER

@<TRIPOS>ATOM
      1 O           2.0000   -1.2500    0.0000 O.2     1  UNL1       -0.2873
      2 O           5.4641   -3.2500    0.0000 O.2     1  UNL1       -0.2876
      3 O           6.3301    4.2500    0.0000 O.2     1  UNL1       -0.2961
      4 C           3.7320   -1.2500    0.0000 C.2     1  UNL1        0.0279
      5 C           3.7320   -0.2500    0.0000 C.2     1  UNL1       -0.0432
      6 C           4.5981    0.2500    0.0000 C.2     1  UNL1       -0.0767
      7 C           4.5981    1.2500    0.0000 C.3     1  UNL1       -0.0154
      8 C           2.8660   -1.7500    0.0000 C.2     1  UNL1        0.1868
      9 C           4.5981   -1.7500    0.0000 C.2     1  UNL1       -0.0036
     10 C           3.7320   -3.2500    0.0000 C.2     1  UNL1       -0.0002
     11 C           4.5981   -2.7500    0.0000 C.2     1  UNL1        0.1827
     12 C           2.8660   -2.7500    0.0000 C.2     1  UNL1       -0.0078
     13 C           2.8660    0.2500    0.0000 C.3     1  UNL1       -0.0393
     14 C           5.4641    1.7500    0.0000 C.2     1  UNL1       -0.0743
     15 C           3.7320   -4.2500    0.0000 C.3     1  UNL1       -0.0360
     16 C           5.4641    2.7500    0.0000 C.2     1  UNL1       -0.0149
     17 C           4.5981    3.2500    0.0000 C.3     1  UNL1       -0.0370
     18 C           6.3301    3.2500    0.0000 C.2     1  UNL1        0.1457
     19 H           5.1350   -0.0600    0.0000 H       1  UNL1        0.0578
     20 H           4.3860    1.8326    0.0000 H       1  UNL1        0.0350
     21 H           3.9875    1.1423    0.0000 H       1  UNL1        0.0350
     22 H           5.1350   -1.4400    0.0000 H       1  UNL1        0.0663
     23 H           2.3291   -3.0600    0.0000 H       1  UNL1        0.0660
     24 H           3.1760    0.7869    0.0000 H       1  UNL1        0.0278
     25 H           2.3291    0.5600    0.0000 H       1  UNL1        0.0278
     26 H           2.5560   -0.2869    0.0000 H       1  UNL1        0.0278
     27 H           6.0010    1.4400    0.0000 H       1  UNL1        0.0579
     28 H           3.1120   -4.2500    0.0000 H       1  UNL1        0.0279
     29 H           3.7320   -4.8700    0.0000 H       1  UNL1        0.0279
     30 H           4.3520   -4.2500    0.0000 H       1  UNL1        0.0279
     31 H           4.9081    3.7869    0.0000 H       1  UNL1        0.0278
     32 H           4.0611    3.5600    0.0000 H       1  UNL1        0.0278
     33 H           4.2881    2.7131    0.0000 H       1  UNL1        0.0278
     34 H           6.8671    2.9400    0.0000 H       1  UNL1        0.1078
@<TRIPOS>BOND
     1     1     8    2
     2     2    11    2
     3     3    18    2
     4     4     5    1
     5     4     8    1
     6     4     9    2
     7     5     6    2
     8     5    13    1
     9     6     7    1
    10     6    19    1
    11     7    14    1
    12     7    20    1
    13     7    21    1
    14     8    12    1
    15     9    11    1
    16     9    22    1
    17    10    11    1
    18    10    12    2
    19    10    15    1
    20    12    23    1
    21    13    24    1
    22    13    25    1
    23    13    26    1
    24    14    16    2
    25    14    27    1
    26    15    28    1
    27    15    29    1
    28    15    30    1
    29    16    17    1
    30    16    18    1
    31    17    31    1
    32    17    32    1
    33    17    33    1
    34    18    34    1
