@<TRIPOS>MOLECULE
IMPHY012662
 49 52 0 0 0
SMALL
GASTEIGER

@<TRIPOS>ATOM
      1 O           2.8963    3.3452    0.0000 O.3     1  UNL1       -0.4911
      2 O           5.6405   -3.3232    0.0000 O.3     1  UNL1       -0.4914
      3 O           3.8372   -4.3830    0.0000 O.3     1  UNL1       -0.4914
      4 O           4.6622    4.3830    0.0000 O.3     1  UNL1       -0.4914
      5 N           2.9180    0.3137    0.0000 N.pl3   1  UNL1       -0.3246
      6 C           2.0080   -0.1931    0.0000 C.3     1  UNL1        0.0166
      7 C           3.7841   -0.1863    0.0000 C.2     1  UNL1        0.0382
      8 C           2.9180    1.3137    0.0000 C.3     1  UNL1        0.0414
      9 C           2.0000   -1.2347    0.0000 C.3     1  UNL1       -0.0112
     10 C           3.8001   -1.2278    0.0000 C.ar    1  UNL1        0.0029
     11 C           2.9021   -1.7555    0.0000 C.ar    1  UNL1       -0.0333
     12 C           3.7841    1.8137    0.0000 C.ar    1  UNL1        0.0222
     13 C           4.6501    1.3137    0.0000 C.ar    1  UNL1       -0.0149
     14 C           4.6501    0.3137    0.0000 C.2     1  UNL1       -0.0325
     15 C           4.7520   -1.7484    0.0000 C.ar    1  UNL1       -0.0071
     16 C           2.8937   -2.8405    0.0000 C.ar    1  UNL1       -0.0125
     17 C           3.7680    2.8552    0.0000 C.ar    1  UNL1        0.1667
     18 C           5.5601    1.8206    0.0000 C.ar    1  UNL1       -0.0505
     19 C           4.7688   -2.8333    0.0000 C.ar    1  UNL1        0.1621
     20 C           3.8334   -3.3830    0.0000 C.ar    1  UNL1        0.1618
     21 C           4.6660    3.3830    0.0000 C.ar    1  UNL1        0.1618
     22 C           5.5681    2.8622    0.0000 C.ar    1  UNL1       -0.0157
     23 C           2.8847    4.3451    0.0000 C.3     1  UNL1        0.0790
     24 C           5.6521   -4.3232    0.0000 C.3     1  UNL1        0.0790
     25 C           2.9731   -4.8863    0.0000 C.3     1  UNL1        0.0790
     26 C           5.5263    4.8863    0.0000 C.3     1  UNL1        0.0790
     27 H           1.8035    0.3922    0.0000 H       1  UNL1        0.0467
     28 H           1.3964   -0.2945    0.0000 H       1  UNL1        0.0467
     29 H           2.7060    1.8963    0.0000 H       1  UNL1        0.0514
     30 H           2.3074    1.2061    0.0000 H       1  UNL1        0.0514
     31 H           1.3900   -1.1239    0.0000 H       1  UNL1        0.0329
     32 H           1.7864   -1.8168    0.0000 H       1  UNL1        0.0329
     33 H           5.1870    0.0037    0.0000 H       1  UNL1        0.0642
     34 H           5.2829   -1.4281    0.0000 H       1  UNL1        0.0662
     35 H           2.3556   -3.1484    0.0000 H       1  UNL1        0.0658
     36 H           6.0934    1.5044    0.0000 H       1  UNL1        0.0625
     37 H           6.1062    3.1701    0.0000 H       1  UNL1        0.0655
     38 H           3.5046    4.3523    0.0000 H       1  UNL1        0.0660
     39 H           2.8775    4.9651    0.0000 H       1  UNL1        0.0660
     40 H           2.2647    4.3380    0.0000 H       1  UNL1        0.0660
     41 H           5.0321   -4.3303    0.0000 H       1  UNL1        0.0660
     42 H           5.6592   -4.9431    0.0000 H       1  UNL1        0.0660
     43 H           6.2720   -4.3160    0.0000 H       1  UNL1        0.0660
     44 H           2.6610   -4.3506    0.0000 H       1  UNL1        0.0660
     45 H           2.4374   -5.1984    0.0000 H       1  UNL1        0.0660
     46 H           3.2852   -5.4221    0.0000 H       1  UNL1        0.0660
     47 H           5.8383    4.3506    0.0000 H       1  UNL1        0.0660
     48 H           6.0620    5.1984    0.0000 H       1  UNL1        0.0660
     49 H           5.2142    5.4220    0.0000 H       1  UNL1        0.0660
@<TRIPOS>BOND
     1     1    17    1
     2     1    23    1
     3     2    19    1
     4     2    24    1
     5     3    20    1
     6     3    25    1
     7     4    21    1
     8     4    26    1
     9     5     6    1
    10     5     7    1
    11     5     8    1
    12     6     9    1
    13     6    27    1
    14     6    28    1
    15     7    10    1
    16     7    14    2
    17     8    12    1
    18     8    29    1
    19     8    30    1
    20     9    11    1
    21     9    31    1
    22     9    32    1
    23    10    11   ar
    24    10    15   ar
    25    11    16   ar
    26    12    13   ar
    27    12    17   ar
    28    13    14    1
    29    13    18   ar
    30    14    33    1
    31    15    19   ar
    32    15    34    1
    33    16    20   ar
    34    16    35    1
    35    17    21   ar
    36    18    22   ar
    37    18    36    1
    38    19    20   ar
    39    21    22   ar
    40    22    37    1
    41    23    38    1
    42    23    39    1
    43    23    40    1
    44    24    41    1
    45    24    42    1
    46    24    43    1
    47    25    44    1
    48    25    45    1
    49    25    46    1
    50    26    47    1
    51    26    48    1
    52    26    49    1
