@<TRIPOS>MOLECULE
IMPHY014356
 26 28 0 0 0
SMALL
GASTEIGER

@<TRIPOS>ATOM
      1 O           6.4144    1.3765    0.0000 O.3     1  UNL1       -0.5062
      2 O           2.9176    1.3765    0.0000 O.3     1  UNL1       -0.5062
      3 C           5.5321   -0.1581    0.0000 C.ar    1  UNL1        0.0243
      4 C           3.8000   -0.1581    0.0000 C.ar    1  UNL1        0.0243
      5 C           5.5321   -1.1581    0.0000 C.ar    1  UNL1       -0.0138
      6 C           3.8000   -1.1581    0.0000 C.ar    1  UNL1       -0.0138
      7 C           4.6660    0.3419    0.0000 C.ar    1  UNL1       -0.0393
      8 C           4.6660   -1.6581    0.0000 C.ar    1  UNL1       -0.0461
      9 C           6.4260    0.3766    0.0000 C.ar    1  UNL1        0.1246
     10 C           2.9061    0.3766    0.0000 C.ar    1  UNL1        0.1246
     11 C           6.4260   -1.6927    0.0000 C.ar    1  UNL1       -0.0538
     12 C           2.9061   -1.6927    0.0000 C.ar    1  UNL1       -0.0538
     13 C           7.3321   -0.1372    0.0000 C.ar    1  UNL1       -0.0196
     14 C           2.0000   -0.1372    0.0000 C.ar    1  UNL1       -0.0196
     15 C           7.3321   -1.1789    0.0000 C.ar    1  UNL1       -0.0577
     16 C           2.0000   -1.1789    0.0000 C.ar    1  UNL1       -0.0577
     17 H           4.6660    0.9619    0.0000 H       1  UNL1        0.0632
     18 H           4.6660   -2.2781    0.0000 H       1  UNL1        0.0630
     19 H           6.4188   -2.3127    0.0000 H       1  UNL1        0.0624
     20 H           2.9132   -2.3127    0.0000 H       1  UNL1        0.0624
     21 H           7.8678    0.1748    0.0000 H       1  UNL1        0.0654
     22 H           1.4643    0.1748    0.0000 H       1  UNL1        0.0654
     23 H           7.8678   -1.4909    0.0000 H       1  UNL1        0.0619
     24 H           1.4643   -1.4909    0.0000 H       1  UNL1        0.0619
     25 H           6.9478    1.6927    0.0000 H       1  UNL1        0.2922
     26 H           2.3843    1.6927    0.0000 H       1  UNL1        0.2922
@<TRIPOS>BOND
     1     1     9    1
     2     1    25    1
     3     2    10    1
     4     2    26    1
     5     3     5   ar
     6     3     7   ar
     7     3     9   ar
     8     4     6   ar
     9     4     7   ar
    10     4    10   ar
    11     5     8   ar
    12     5    11   ar
    13     6     8   ar
    14     6    12   ar
    15     7    17    1
    16     8    18    1
    17     9    13   ar
    18    10    14   ar
    19    11    15   ar
    20    11    19    1
    21    12    16   ar
    22    12    20    1
    23    13    15   ar
    24    13    21    1
    25    14    16   ar
    26    14    22    1
    27    15    23    1
    28    16    24    1
