@<TRIPOS>MOLECULE
IMPHY013936
 78 82 0 0 0
SMALL
GASTEIGER

@<TRIPOS>ATOM
      1 O           6.7227    0.0266    0.0000 O.3     1  UNL1       -0.4508
      2 O           7.7518   -1.8819    0.0000 O.2     1  UNL1       -0.4959
      3 O           5.7877    3.0617    0.0000 O.3     1  UNL1       -0.4526
      4 O           6.8329    4.3724    0.0000 O.3     1  UNL1       -0.4526
      5 O           6.4931   -1.6902    0.0000 O.2     1  UNL1       -0.2476
      6 O           5.2537    0.3582    0.0000 O.3     1  UNL1       -0.3769
      7 O           2.7580    0.5567    0.0000 O.3     1  UNL1       -0.4678
      8 O           2.0822   -3.7578    0.0000 O.3     1  UNL1       -0.3891
      9 O           4.3595    1.2163    0.0000 O.2     1  UNL1       -0.2507
     10 N          10.2009    0.6144    0.0000 N.3     1  UNL1       -0.2921
     11 C           9.2999    0.1805    0.0000 C.3     1  UNL1        0.0542
     12 C           8.3990    0.6144    0.0000 C.3     1  UNL1        0.0508
     13 C           9.9101   -0.6043    0.0000 C.3     1  UNL1       -0.0289
     14 C           7.7138   -0.1059    0.0000 C.3     1  UNL1        0.1680
     15 C          11.1544    0.3331    0.0000 C.3     1  UNL1       -0.0002
     16 C          11.0144   -0.4643    0.0000 C.3     1  UNL1       -0.0382
     17 C           9.1639   -0.8042    0.0000 C.2     1  UNL1       -0.0219
     18 C           8.1764    1.5893    0.0000 C.ar    1  UNL1       -0.0314
     19 C          10.4234    1.5893    0.0000 C.3     1  UNL1        0.0037
     20 C           8.1857   -0.9809    0.0000 C.2     1  UNL1        0.1362
     21 C           9.7999    2.3711    0.0000 C.3     1  UNL1       -0.0144
     22 C           8.7999    2.3711    0.0000 C.ar    1  UNL1       -0.0388
     23 C           7.1442    1.7286    0.0000 C.ar    1  UNL1       -0.0122
     24 C           8.4344    3.3465    0.0000 C.ar    1  UNL1       -0.0127
     25 C           6.7562    2.6953    0.0000 C.ar    1  UNL1        0.1665
     26 C           7.4056    3.5097    0.0000 C.ar    1  UNL1        0.1665
     27 C           6.1123   -0.7655    0.0000 C.2     1  UNL1        0.3404
     28 C           5.1211   -0.6330    0.0000 C.3     1  UNL1        0.1721
     29 C           8.3151   -2.7081    0.0000 C.3     1  UNL1        0.0785
     30 C           4.9886   -1.6242    0.0000 C.3     1  UNL1       -0.0129
     31 C           5.8350    4.0960    0.0000 C.3     1  UNL1        0.2332
     32 C           4.1300   -0.5005    0.0000 C.3     1  UNL1        0.0841
     33 C           4.0640   -2.0050    0.0000 C.3     1  UNL1       -0.0473
     34 C           3.9314   -2.9962    0.0000 C.3     1  UNL1       -0.0244
     35 C           3.0068   -3.3770    0.0000 C.3     1  UNL1        0.0605
     36 C           3.7491    0.4242    0.0000 C.2     1  UNL1        0.3101
     37 C           3.3876   -4.3017    0.0000 C.3     1  UNL1       -0.0363
     38 C           2.6260   -2.4524    0.0000 C.3     1  UNL1       -0.0363
     39 C           2.1476   -0.2355    0.0000 C.3     1  UNL1        0.0817
     40 H           9.0635    1.1443    0.0000 H       1  UNL1        0.0411
     41 H           9.3609   -0.8920    0.0000 H       1  UNL1        0.0287
     42 H          10.0958   -1.1958    0.0000 H       1  UNL1        0.0287
     43 H           7.5078    0.4788    0.0000 H       1  UNL1        0.0823
     44 H          11.7606    0.2030    0.0000 H       1  UNL1        0.0427
     45 H          11.3072    0.9340    0.0000 H       1  UNL1        0.0427
     46 H          11.0306   -1.0841    0.0000 H       1  UNL1        0.0278
     47 H          11.6327   -0.5101    0.0000 H       1  UNL1        0.0278
     48 H           9.6113   -1.2335    0.0000 H       1  UNL1        0.0625
     49 H          10.9820    1.3203    0.0000 H       1  UNL1        0.0430
     50 H          10.8100    2.0740    0.0000 H       1  UNL1        0.0430
     51 H          10.3585    2.6401    0.0000 H       1  UNL1        0.0326
     52 H           9.6620    2.9756    0.0000 H       1  UNL1        0.0326
     53 H           6.7632    1.2395    0.0000 H       1  UNL1        0.0658
     54 H           8.8265    3.8268    0.0000 H       1  UNL1        0.0658
     55 H           7.8028   -3.0574    0.0000 H       1  UNL1        0.0660
     56 H           8.6644   -3.2204    0.0000 H       1  UNL1        0.0660
     57 H           8.8274   -2.3588    0.0000 H       1  UNL1        0.0660
     58 H           5.1216   -2.2298    0.0000 H       1  UNL1        0.0298
     59 H           5.6081   -1.5984    0.0000 H       1  UNL1        0.0298
     60 H           5.7333    4.7076    0.0000 H       1  UNL1        0.1166
     61 H           5.2161    4.0592    0.0000 H       1  UNL1        0.1166
     62 H           3.5244   -0.6335    0.0000 H       1  UNL1        0.0412
     63 H           4.1558   -1.1200    0.0000 H       1  UNL1        0.0412
     64 H           3.9310   -1.3994    0.0000 H       1  UNL1        0.0267
     65 H           3.4445   -2.0308    0.0000 H       1  UNL1        0.0267
     66 H           4.7625    0.7366    0.0000 H       1  UNL1        0.2109
     67 H           4.0644   -3.6018    0.0000 H       1  UNL1        0.0293
     68 H           4.5509   -2.9704    0.0000 H       1  UNL1        0.0293
     69 H           2.8144   -4.5378    0.0000 H       1  UNL1        0.0257
     70 H           3.6238   -4.8750    0.0000 H       1  UNL1        0.0257
     71 H           3.9609   -4.0656    0.0000 H       1  UNL1        0.0257
     72 H           3.1993   -2.2163    0.0000 H       1  UNL1        0.0257
     73 H           2.3899   -1.8791    0.0000 H       1  UNL1        0.0257
     74 H           2.0527   -2.6885    0.0000 H       1  UNL1        0.0257
     75 H           2.0000   -4.3724    0.0000 H       1  UNL1        0.2101
     76 H           1.6565    0.1430    0.0000 H       1  UNL1        0.0661
     77 H           1.7692   -0.7266    0.0000 H       1  UNL1        0.0661
     78 H           2.6387   -0.6139    0.0000 H       1  UNL1        0.0661
@<TRIPOS>BOND
     1    14     1    1
     2     1    27    1
     3     2    20    1
     4     2    29    1
     5     3    25    1
     6     3    31    1
     7     4    26    1
     8     4    31    1
     9     5    27    2
    10    28     6    1
    11     6    66    1
    12     7    36    1
    13     7    39    1
    14     8    35    1
    15     8    75    1
    16     9    36    2
    17    10    11    1
    18    10    15    1
    19    10    19    1
    20    11    12    1
    21    11    13    1
    22    11    17    1
    23    12    14    1
    24    12    18    1
    25    12    40    1
    26    13    16    1
    27    13    41    1
    28    13    42    1
    29    14    20    1
    30    14    43    1
    31    15    16    1
    32    15    44    1
    33    15    45    1
    34    16    46    1
    35    16    47    1
    36    17    20    2
    37    17    48    1
    38    18    22   ar
    39    18    23   ar
    40    19    21    1
    41    19    49    1
    42    19    50    1
    43    21    22    1
    44    21    51    1
    45    21    52    1
    46    22    24   ar
    47    23    25   ar
    48    23    53    1
    49    24    26   ar
    50    24    54    1
    51    25    26   ar
    52    27    28    1
    53    28    30    1
    54    28    32    1
    55    29    55    1
    56    29    56    1
    57    29    57    1
    58    30    33    1
    59    30    58    1
    60    30    59    1
    61    31    60    1
    62    31    61    1
    63    32    36    1
    64    32    62    1
    65    32    63    1
    66    33    34    1
    67    33    64    1
    68    33    65    1
    69    34    35    1
    70    34    67    1
    71    34    68    1
    72    35    37    1
    73    35    38    1
    74    37    69    1
    75    37    70    1
    76    37    71    1
    77    38    72    1
    78    38    73    1
    79    38    74    1
    80    39    76    1
    81    39    77    1
    82    39    78    1
