@<TRIPOS>MOLECULE
IMPHY005863
 47 49 0 0 0
SMALL
GASTEIGER

@<TRIPOS>ATOM
      1 O           5.5301   -1.9050    0.0000 O.2     1  UNL1       -0.4618
      2 O           3.7817    1.1296    0.0000 O.3     1  UNL1       -0.4942
      3 O           9.8602    1.5950    0.0000 O.3     1  UNL1       -0.5031
      4 O           8.1282    2.5950    0.0000 O.3     1  UNL1       -0.5033
      5 O           5.5301    1.0950    0.0000 O.2     1  UNL1       -0.2863
      6 O           2.0000   -1.9292    0.0000 O.3     1  UNL1       -0.5065
      7 C           7.2622    0.0950    0.0000 C.ar    1  UNL1       -0.0073
      8 C           8.9942    0.0950    0.0000 C.ar    1  UNL1        0.0020
      9 C           6.3961   -0.4050    0.0000 C.ar    1  UNL1        0.0645
     10 C           8.1282   -0.4050    0.0000 C.ar    1  UNL1       -0.0466
     11 C           4.6641   -0.4050    0.0000 C.ar    1  UNL1        0.1063
     12 C           9.8602   -0.4050    0.0000 C.3     1  UNL1       -0.0057
     13 C           5.5301    0.0950    0.0000 C.ar    1  UNL1        0.2037
     14 C           8.9942    1.0950    0.0000 C.ar    1  UNL1        0.1618
     15 C           4.6641   -1.4050    0.0000 C.ar    1  UNL1        0.1454
     16 C           7.2622    1.0950    0.0000 C.ar    1  UNL1       -0.0086
     17 C           8.1282    1.5950    0.0000 C.ar    1  UNL1        0.1591
     18 C           6.3961   -1.4050    0.0000 C.ar    1  UNL1        0.1038
     19 C           3.7702    0.1297    0.0000 C.ar    1  UNL1        0.1379
     20 C           9.8602   -1.4050    0.0000 C.2     1  UNL1       -0.0809
     21 C           3.7702   -1.9397    0.0000 C.ar    1  UNL1        0.0231
     22 C           2.8641   -0.3842    0.0000 C.ar    1  UNL1        0.0225
     23 C           2.8641   -1.4258    0.0000 C.ar    1  UNL1        0.1239
     24 C          10.7263   -1.9050    0.0000 C.2     1  UNL1       -0.0793
     25 C          10.7263   -2.9050    0.0000 C.3     1  UNL1       -0.0440
     26 C          11.5923   -1.4050    0.0000 C.3     1  UNL1       -0.0440
     27 C           2.9215    1.6396    0.0000 C.3     1  UNL1        0.0788
     28 H           8.1282   -1.0250    0.0000 H       1  UNL1        0.0628
     29 H          10.4708   -0.5127    0.0000 H       1  UNL1        0.0357
     30 H          10.0723    0.1776    0.0000 H       1  UNL1        0.0357
     31 H           6.7252    1.4050    0.0000 H       1  UNL1        0.0661
     32 H           6.9331   -1.7150    0.0000 H       1  UNL1        0.1037
     33 H           9.3233   -1.7150    0.0000 H       1  UNL1        0.0575
     34 H           3.7773   -2.5596    0.0000 H       1  UNL1        0.0691
     35 H           2.3284   -0.0721    0.0000 H       1  UNL1        0.0691
     36 H          10.1063   -2.9050    0.0000 H       1  UNL1        0.0274
     37 H          11.9023   -1.9419    0.0000 H       1  UNL1        0.0274
     38 H          12.1292   -1.0950    0.0000 H       1  UNL1        0.0274
     39 H          11.2823   -0.8681    0.0000 H       1  UNL1        0.0274
     40 H          10.7263   -3.5250    0.0000 H       1  UNL1        0.0274
     41 H          11.3463   -2.9050    0.0000 H       1  UNL1        0.0274
     42 H           9.8602    2.2150    0.0000 H       1  UNL1        0.2923
     43 H           7.5913    2.9050    0.0000 H       1  UNL1        0.2923
     44 H           3.2377    2.1729    0.0000 H       1  UNL1        0.0660
     45 H           2.3882    1.9558    0.0000 H       1  UNL1        0.0660
     46 H           2.6054    1.1063    0.0000 H       1  UNL1        0.0660
     47 H           2.0024   -2.5492    0.0000 H       1  UNL1        0.2921
@<TRIPOS>BOND
     1     1    15   ar
     2     1    18   ar
     3     2    19    1
     4     2    27    1
     5     3    14    1
     6     3    42    1
     7     4    17    1
     8     4    43    1
     9     5    13    2
    10     6    23    1
    11     6    47    1
    12     7     9    1
    13     7    10   ar
    14     7    16   ar
    15     8    10   ar
    16     8    12    1
    17     8    14   ar
    18     9    13   ar
    19     9    18   ar
    20    10    28    1
    21    11    13   ar
    22    11    15   ar
    23    11    19   ar
    24    12    20    1
    25    12    29    1
    26    12    30    1
    27    14    17   ar
    28    15    21   ar
    29    16    17   ar
    30    16    31    1
    31    18    32    1
    32    19    22   ar
    33    20    24    2
    34    20    33    1
    35    21    23   ar
    36    21    34    1
    37    22    23   ar
    38    22    35    1
    39    24    25    1
    40    24    26    1
    41    25    36    1
    42    25    40    1
    43    25    41    1
    44    26    37    1
    45    26    38    1
    46    26    39    1
    47    27    44    1
    48    27    45    1
    49    27    46    1
