@<TRIPOS>MOLECULE
IMPHY003575
 38 40 0 0 0
SMALL
GASTEIGER

@<TRIPOS>ATOM
      1 O           6.0682   -0.4045    0.0000 O.3     1  UNL1       -0.4885
      2 O           7.4343    1.9615    0.0000 O.3     1  UNL1       -0.3819
      3 O           6.0682    2.5955    0.0000 O.3     1  UNL1       -0.3841
      4 O           2.5381   -0.4286    0.0000 O.3     1  UNL1       -0.5066
      5 O           7.9343   -2.3686    0.0000 O.3     1  UNL1       -0.5033
      6 O           9.9343   -2.3686    0.0000 O.3     1  UNL1       -0.5033
      7 C           6.9343    1.0955    0.0000 C.3     1  UNL1        0.1336
      8 C           6.0682    1.5955    0.0000 C.3     1  UNL1        0.1157
      9 C           7.9343    1.0955    0.0000 C.3     1  UNL1        0.0074
     10 C           6.9343    0.0955    0.0000 C.3     1  UNL1        0.1213
     11 C           5.2022    1.0955    0.0000 C.ar    1  UNL1        0.0256
     12 C           5.2022    0.0955    0.0000 C.ar    1  UNL1        0.1298
     13 C           8.4343    0.2295    0.0000 C.ar    1  UNL1       -0.0408
     14 C           4.3083    1.6302    0.0000 C.ar    1  UNL1       -0.0491
     15 C           4.3083   -0.4391    0.0000 C.ar    1  UNL1        0.0219
     16 C           7.9343   -0.6365    0.0000 C.ar    1  UNL1       -0.0133
     17 C           9.4343    0.2295    0.0000 C.ar    1  UNL1       -0.0548
     18 C           3.4022    1.1163    0.0000 C.ar    1  UNL1       -0.0196
     19 C           3.4022    0.0747    0.0000 C.ar    1  UNL1        0.1204
     20 C           8.4343   -1.5026    0.0000 C.ar    1  UNL1        0.1585
     21 C           9.9343   -0.6365    0.0000 C.ar    1  UNL1       -0.0163
     22 C           9.4343   -1.5026    0.0000 C.ar    1  UNL1        0.1582
     23 H           6.6052    1.9055    0.0000 H       1  UNL1        0.0675
     24 H           8.5169    1.3076    0.0000 H       1  UNL1        0.0343
     25 H           7.8266    1.7061    0.0000 H       1  UNL1        0.0343
     26 H           7.1463   -0.4871    0.0000 H       1  UNL1        0.0727
     27 H           7.5449    0.2032    0.0000 H       1  UNL1        0.0727
     28 H           8.0543    1.9615    0.0000 H       1  UNL1        0.2104
     29 H           4.3154    2.2501    0.0000 H       1  UNL1        0.0623
     30 H           5.5313    2.9055    0.0000 H       1  UNL1        0.2104
     31 H           4.3154   -1.0591    0.0000 H       1  UNL1        0.0691
     32 H           7.3143   -0.6365    0.0000 H       1  UNL1        0.0658
     33 H           9.7443    0.7664    0.0000 H       1  UNL1        0.0621
     34 H           2.8665    1.4284    0.0000 H       1  UNL1        0.0654
     35 H          10.5543   -0.6365    0.0000 H       1  UNL1        0.0655
     36 H           2.0000   -0.1207    0.0000 H       1  UNL1        0.2921
     37 H           8.2443   -2.9055    0.0000 H       1  UNL1        0.2923
     38 H          10.5543   -2.3686    0.0000 H       1  UNL1        0.2923
@<TRIPOS>BOND
     1     1    10    1
     2     1    12    1
     3     7     2    1
     4     2    28    1
     5     8     3    1
     6     3    30    1
     7     4    19    1
     8     4    36    1
     9     5    20    1
    10     5    37    1
    11     6    22    1
    12     6    38    1
    13     7     8    1
    14     7     9    1
    15     7    10    1
    16     8    11    1
    17     8    23    1
    18     9    13    1
    19     9    24    1
    20     9    25    1
    21    10    26    1
    22    10    27    1
    23    11    12   ar
    24    11    14   ar
    25    12    15   ar
    26    13    16   ar
    27    13    17   ar
    28    14    18   ar
    29    14    29    1
    30    15    19   ar
    31    15    31    1
    32    16    20   ar
    33    16    32    1
    34    17    21   ar
    35    17    33    1
    36    18    19   ar
    37    18    34    1
    38    20    22   ar
    39    21    22   ar
    40    21    35    1
