@<TRIPOS>MOLECULE
IMPHY005751
 81 86 0 0 0
SMALL
GASTEIGER

@<TRIPOS>ATOM
      1 O          10.9753    2.8314    0.0000 O.3     1  UNL1       -0.4604
      2 O           2.5576   -2.3734    0.0000 O.3     1  UNL1       -0.3886
      3 O           2.4112   -0.1944    0.0000 O.3     1  UNL1       -0.3892
      4 O          11.5346    1.2329    0.0000 O.2     1  UNL1       -0.2502
      5 O           4.5827   -4.0508    0.0000 O.3     1  UNL1       -0.3944
      6 C           7.2594   -0.3744    0.0000 C.3     1  UNL1       -0.0194
      7 C           6.2818    0.0964    0.0000 C.3     1  UNL1       -0.0257
      8 C           5.3384   -0.5258    0.0000 C.3     1  UNL1       -0.0225
      9 C           8.1511    0.2437    0.0000 C.3     1  UNL1       -0.0051
     10 C           5.4141   -1.6534    0.0000 C.3     1  UNL1       -0.0253
     11 C           8.9509    1.8564    0.0000 C.3     1  UNL1       -0.0029
     12 C           7.3612   -1.5000    0.0000 C.3     1  UNL1       -0.0463
     13 C           9.8518    1.4225    0.0000 C.3     1  UNL1        0.0776
     14 C           8.0813    1.2830    0.0000 C.2     1  UNL1       -0.0629
     15 C           6.4324   -2.1438    0.0000 C.3     1  UNL1       -0.0485
     16 C           4.4466   -2.3240    0.0000 C.3     1  UNL1        0.0227
     17 C           9.0896   -0.2082    0.0000 C.3     1  UNL1       -0.0424
     18 C           6.2091    1.1789    0.0000 C.3     1  UNL1       -0.0306
     19 C           4.2898    0.0094    0.0000 C.3     1  UNL1       -0.0184
     20 C           9.9457    0.3851    0.0000 C.3     1  UNL1       -0.0358
     21 C           7.9576   -1.0903    0.0000 C.3     1  UNL1       -0.0585
     22 C           8.7283    2.8314    0.0000 C.3     1  UNL1       -0.0369
     23 C           9.7450    2.5993    0.0000 C.3     1  UNL1        0.0012
     24 C           7.1149    1.7762    0.0000 C.2     1  UNL1       -0.0836
     25 C           3.3860   -1.8133    0.0000 C.3     1  UNL1        0.0888
     26 C           9.3518    3.6132    0.0000 C.3     1  UNL1        0.0028
     27 C           5.2713    0.4719    0.0000 C.3     1  UNL1       -0.0589
     28 C           8.5554   -0.6710    0.0000 C.3     1  UNL1       -0.0553
     29 C          10.3518    3.6132    0.0000 C.3     1  UNL1        0.1092
     30 C           3.3070   -0.6387    0.0000 C.3     1  UNL1        0.0822
     31 C          10.7528    1.8564    0.0000 C.2     1  UNL1        0.3143
     32 C           4.0162   -3.2267    0.0000 C.3     1  UNL1        0.0523
     33 C           5.0131   -3.1481    0.0000 C.3     1  UNL1       -0.0547
     34 C           8.5256    4.1765    0.0000 C.3     1  UNL1       -0.0564
     35 C           9.4266    4.6104    0.0000 C.3     1  UNL1       -0.0564
     36 H           6.9860    0.5725    0.0000 H       1  UNL1        0.0315
     37 H           5.4809   -2.5008    0.0000 H       1  UNL1        0.0313
     38 H           8.1850    2.2252    0.0000 H       1  UNL1        0.0357
     39 H           7.6220   -2.0624    0.0000 H       1  UNL1        0.0271
     40 H           7.9600   -1.3393    0.0000 H       1  UNL1        0.0271
     41 H           6.0717   -2.6481    0.0000 H       1  UNL1        0.0268
     42 H           6.8675   -2.5854    0.0000 H       1  UNL1        0.0268
     43 H           8.7290   -0.7126    0.0000 H       1  UNL1        0.0274
     44 H           9.5248   -0.6499    0.0000 H       1  UNL1        0.0274
     45 H           5.9614    1.7473    0.0000 H       1  UNL1        0.0310
     46 H           5.6067    1.0321    0.0000 H       1  UNL1        0.0310
     47 H           4.6620    0.5052    0.0000 H       1  UNL1        0.0296
     48 H           3.8650    0.4609    0.0000 H       1  UNL1        0.0296
     49 H          10.2065   -0.1773    0.0000 H       1  UNL1        0.0276
     50 H          10.5445    0.5458    0.0000 H       1  UNL1        0.0276
     51 H           7.5138   -1.5232    0.0000 H       1  UNL1        0.0235
     52 H           8.3905   -1.5341    0.0000 H       1  UNL1        0.0235
     53 H           8.4015   -0.6574    0.0000 H       1  UNL1        0.0235
     54 H           8.3418    3.3161    0.0000 H       1  UNL1        0.0278
     55 H           8.1697    2.5623    0.0000 H       1  UNL1        0.0278
     56 H           9.3372    3.0663    0.0000 H       1  UNL1        0.0312
     57 H           9.1749    2.3555    0.0000 H       1  UNL1        0.0312
     58 H           7.0805    2.3953    0.0000 H       1  UNL1        0.0572
     59 H           3.4311   -2.4316    0.0000 H       1  UNL1        0.0625
     60 H           7.9883   -0.9216    0.0000 H       1  UNL1        0.0238
     61 H           8.8060   -1.2380    0.0000 H       1  UNL1        0.0238
     62 H           9.1224   -0.4203    0.0000 H       1  UNL1        0.0238
     63 H           5.8899    0.5135    0.0000 H       1  UNL1        0.0235
     64 H           5.2297    1.0905    0.0000 H       1  UNL1        0.0235
     65 H           4.6527    0.4304    0.0000 H       1  UNL1        0.0235
     66 H          10.5410    4.4419    0.0000 H       1  UNL1        0.0739
     67 H           2.7914   -0.9830    0.0000 H       1  UNL1        0.0619
     68 H           3.5114   -2.8667    0.0000 H       1  UNL1        0.0563
     69 H           3.5740   -3.6613    0.0000 H       1  UNL1        0.0563
     70 H           4.5022   -3.4993    0.0000 H       1  UNL1        0.0237
     71 H           5.3643   -3.6590    0.0000 H       1  UNL1        0.0237
     72 H           5.5240   -2.7969    0.0000 H       1  UNL1        0.0237
     73 H           8.8748    4.6888    0.0000 H       1  UNL1        0.0236
     74 H           8.0133    4.5258    0.0000 H       1  UNL1        0.0236
     75 H           8.1763    3.6642    0.0000 H       1  UNL1        0.0236
     76 H          10.0448    4.5640    0.0000 H       1  UNL1        0.0236
     77 H           9.4729    5.2286    0.0000 H       1  UNL1        0.0236
     78 H           8.8083    4.6567    0.0000 H       1  UNL1        0.0236
     79 H           2.0000   -2.1022    0.0000 H       1  UNL1        0.2099
     80 H           2.3720    0.4243    0.0000 H       1  UNL1        0.2099
     81 H           4.3158   -4.6104    0.0000 H       1  UNL1        0.2094
@<TRIPOS>BOND
     1     1    29    1
     2     1    31    1
     3    25     2    1
     4     2    79    1
     5    30     3    1
     6     3    80    1
     7     4    31    2
     8     5    32    1
     9     5    81    1
    10     6     7    1
    11     6     9    1
    12     6    12    1
    13     6    21    1
    14     7     8    1
    15     7    18    1
    16     7    36    1
    17     8    10    1
    18     8    19    1
    19     8    27    1
    20     9    14    1
    21     9    17    1
    22     9    28    1
    23    10    15    1
    24    10    16    1
    25    10    37    1
    26    11    13    1
    27    11    14    1
    28    11    22    1
    29    11    38    1
    30    12    15    1
    31    12    39    1
    32    12    40    1
    33    13    20    1
    34    13    23    1
    35    13    31    1
    36    14    24    2
    37    15    41    1
    38    15    42    1
    39    16    25    1
    40    16    32    1
    41    16    33    1
    42    17    20    1
    43    17    43    1
    44    17    44    1
    45    18    24    1
    46    18    45    1
    47    18    46    1
    48    19    30    1
    49    19    47    1
    50    19    48    1
    51    20    49    1
    52    20    50    1
    53    21    51    1
    54    21    52    1
    55    21    53    1
    56    22    26    1
    57    22    54    1
    58    22    55    1
    59    23    29    1
    60    23    56    1
    61    23    57    1
    62    24    58    1
    63    25    30    1
    64    25    59    1
    65    26    29    1
    66    26    34    1
    67    26    35    1
    68    27    63    1
    69    27    64    1
    70    27    65    1
    71    28    60    1
    72    28    61    1
    73    28    62    1
    74    29    66    1
    75    30    67    1
    76    32    68    1
    77    32    69    1
    78    33    70    1
    79    33    71    1
    80    33    72    1
    81    34    73    1
    82    34    74    1
    83    34    75    1
    84    35    76    1
    85    35    77    1
    86    35    78    1
