@<TRIPOS>MOLECULE
IMPHY013399
 33 37 0 0 0
SMALL
GASTEIGER

@<TRIPOS>ATOM
      1 O           6.4688   -0.6718    0.0000 O.3     1  UNL1       -0.4830
      2 O           6.2596    2.3000    0.0000 O.3     1  UNL1       -0.4907
      3 O           2.6079    2.1383    0.0000 O.2     1  UNL1       -0.4628
      4 O           9.6670   -2.3347    0.0000 O.3     1  UNL1       -0.5066
      5 C           7.1256    0.8000    0.0000 C.3     1  UNL1        0.0629
      6 C           6.2596    0.3000    0.0000 C.3     1  UNL1        0.1385
      7 C           7.8626    0.1330    0.0000 C.ar    1  UNL1        0.0047
      8 C           7.1256    1.8000    0.0000 C.3     1  UNL1        0.1002
      9 C           5.3935    0.8000    0.0000 C.ar    1  UNL1        0.0358
     10 C           7.4575   -0.7748    0.0000 C.ar    1  UNL1        0.1285
     11 C           5.3935    1.8000    0.0000 C.ar    1  UNL1        0.1307
     12 C           4.4996    0.2654    0.0000 C.ar    1  UNL1       -0.0408
     13 C           8.8907    0.2562    0.0000 C.ar    1  UNL1       -0.0511
     14 C           4.4996    2.3347    0.0000 C.ar    1  UNL1        0.0233
     15 C           3.5935    0.7792    0.0000 C.ar    1  UNL1        0.0207
     16 C           8.0524   -1.6223    0.0000 C.ar    1  UNL1        0.0219
     17 C           3.5935    1.8209    0.0000 C.ar    1  UNL1        0.1383
     18 C           9.5050   -0.5773    0.0000 C.ar    1  UNL1       -0.0197
     19 C           9.0831   -1.5229    0.0000 C.ar    1  UNL1        0.1203
     20 C           2.6079    0.4618    0.0000 C.ar    1  UNL1       -0.0161
     21 C           2.0000    1.3000    0.0000 C.ar    1  UNL1        0.0931
     22 H           7.6923    1.0515    0.0000 H       1  UNL1        0.0423
     23 H           5.7584   -0.0650    0.0000 H       1  UNL1        0.0793
     24 H           7.7362    1.6924    0.0000 H       1  UNL1        0.0704
     25 H           7.3376    2.3827    0.0000 H       1  UNL1        0.0704
     26 H           4.5068   -0.3546    0.0000 H       1  UNL1        0.0630
     27 H           9.1368    0.8252    0.0000 H       1  UNL1        0.0623
     28 H           4.5068    2.9547    0.0000 H       1  UNL1        0.0691
     29 H           7.7932   -2.1856    0.0000 H       1  UNL1        0.0691
     30 H          10.1215   -0.5107    0.0000 H       1  UNL1        0.0654
     31 H           2.4153   -0.1275    0.0000 H       1  UNL1        0.0655
     32 H           1.3800    1.3000    0.0000 H       1  UNL1        0.1029
     33 H          10.2839   -2.2728    0.0000 H       1  UNL1        0.2921
@<TRIPOS>BOND
     1     1     6    1
     2     1    10    1
     3     2     8    1
     4     2    11    1
     5     3    17   ar
     6     3    21   ar
     7     4    19    1
     8     4    33    1
     9     5     6    1
    10     5     7    1
    11     5     8    1
    12     5    22    1
    13     6     9    1
    14     6    23    1
    15     7    10   ar
    16     7    13   ar
    17     8    24    1
    18     8    25    1
    19     9    11   ar
    20     9    12   ar
    21    10    16   ar
    22    11    14   ar
    23    12    15   ar
    24    12    26    1
    25    13    18   ar
    26    13    27    1
    27    14    17   ar
    28    14    28    1
    29    15    17   ar
    30    15    20   ar
    31    16    19   ar
    32    16    29    1
    33    18    19   ar
    34    18    30    1
    35    20    21   ar
    36    20    31    1
    37    21    32    1
