@<TRIPOS>MOLECULE
IMPHY001901
 50 54 0 0 0
SMALL
GASTEIGER

@<TRIPOS>ATOM
      1 O           3.0455    1.2602    0.0000 O.3     1  UNL1       -0.3509
      2 O           4.4447    2.3446    0.0000 O.3     1  UNL1       -0.3667
      3 N           6.8868    1.7760    0.0000 N.3     1  UNL1       -0.3046
      4 N           7.9065   -1.9931    0.0000 N.ar    1  UNL1       -0.3452
      5 C           4.3601   -0.3379    0.0000 C.3     1  UNL1       -0.0255
      6 C           4.7185    0.5957    0.0000 C.3     1  UNL1        0.0288
      7 C           6.1501    0.7933    0.0000 C.3     1  UNL1        0.0199
      8 C           5.1373   -0.9672    0.0000 C.3     1  UNL1       -0.0284
      9 C           6.4090   -0.1726    0.0000 C.3     1  UNL1        0.0490
     10 C           3.3340   -0.5167    0.0000 C.3     1  UNL1       -0.0144
     11 C           8.1834    0.4822    0.0000 C.3     1  UNL1       -0.0095
     12 C           4.0755    1.4152    0.0000 C.3     1  UNL1        0.1606
     13 C           7.6300   -1.0382    0.0000 C.ar    1  UNL1        0.0398
     14 C           8.4590   -0.4790    0.0000 C.ar    1  UNL1       -0.0159
     15 C           2.6722    0.2877    0.0000 C.3     1  UNL1        0.0537
     16 C           2.9864   -1.4544    0.0000 C.3     1  UNL1       -0.0507
     17 C           9.2408   -1.0931    0.0000 C.ar    1  UNL1        0.0034
     18 C           8.9000   -2.0269    0.0000 C.ar    1  UNL1        0.0493
     19 C           2.0006   -1.6222    0.0000 C.3     1  UNL1       -0.0649
     20 C           7.2922   -2.7822    0.0000 C.3     1  UNL1        0.0122
     21 C          10.2578   -0.8985    0.0000 C.ar    1  UNL1       -0.0523
     22 C           9.5526   -2.8309    0.0000 C.ar    1  UNL1       -0.0376
     23 C          10.9288   -1.6871    0.0000 C.ar    1  UNL1       -0.0611
     24 C          10.5738   -2.6598    0.0000 C.ar    1  UNL1       -0.0598
     25 H           4.0555   -1.1314    0.0000 H       1  UNL1        0.0309
     26 H           5.0231    1.3892    0.0000 H       1  UNL1        0.0368
     27 H           5.9302    1.6144    0.0000 H       1  UNL1        0.0468
     28 H           5.5218   -1.4536    0.0000 H       1  UNL1        0.0287
     29 H           4.6963   -1.4031    0.0000 H       1  UNL1        0.0287
     30 H           6.6290   -0.9936    0.0000 H       1  UNL1        0.0525
     31 H           2.7226   -0.6196    0.0000 H       1  UNL1        0.0326
     32 H           7.1968    2.3129    0.0000 H       1  UNL1        0.1228
     33 H           8.1884    1.1022    0.0000 H       1  UNL1        0.0329
     34 H           8.7977    0.5660    0.0000 H       1  UNL1        0.0329
     35 H           4.6892    1.5039    0.0000 H       1  UNL1        0.0911
     36 H           2.2679   -0.1823    0.0000 H       1  UNL1        0.0564
     37 H           2.1400    0.6057    0.0000 H       1  UNL1        0.0564
     38 H           3.5964   -1.5656    0.0000 H       1  UNL1        0.0266
     39 H           2.9828   -2.0743    0.0000 H       1  UNL1        0.0266
     40 H           4.0601    2.8309    0.0000 H       1  UNL1        0.2125
     41 H           2.1047   -2.2334    0.0000 H       1  UNL1        0.0230
     42 H           1.3894   -1.7263    0.0000 H       1  UNL1        0.0230
     43 H           1.8965   -1.0110    0.0000 H       1  UNL1        0.0230
     44 H           7.7814   -3.1630    0.0000 H       1  UNL1        0.0456
     45 H           6.9113   -3.2714    0.0000 H       1  UNL1        0.0456
     46 H           6.8030   -2.4013    0.0000 H       1  UNL1        0.0456
     47 H          10.4636   -0.3136    0.0000 H       1  UNL1        0.0624
     48 H           9.3333   -3.4108    0.0000 H       1  UNL1        0.0638
     49 H          11.5390   -1.5776    0.0000 H       1  UNL1        0.0618
     50 H          10.9701   -3.1366    0.0000 H       1  UNL1        0.0618
@<TRIPOS>BOND
     1     1    12    1
     2     1    15    1
     3    12     2    1
     4     2    40    1
     5     3     7    1
     6     3     9    1
     7     3    32    1
     8     4    13   ar
     9     4    18   ar
    10     4    20    1
    11     5     6    1
    12     5     8    1
    13     5    10    1
    14     5    25    1
    15     6     7    1
    16     6    12    1
    17     6    26    1
    18     7    11    1
    19     7    27    1
    20     8     9    1
    21     8    28    1
    22     8    29    1
    23     9    13    1
    24     9    30    1
    25    10    15    1
    26    10    16    1
    27    10    31    1
    28    11    14    1
    29    11    33    1
    30    11    34    1
    31    12    35    1
    32    13    14   ar
    33    14    17   ar
    34    15    36    1
    35    15    37    1
    36    16    19    1
    37    16    38    1
    38    16    39    1
    39    17    18   ar
    40    17    21   ar
    41    18    22   ar
    42    19    41    1
    43    19    42    1
    44    19    43    1
    45    20    44    1
    46    20    45    1
    47    20    46    1
    48    21    23   ar
    49    21    47    1
    50    22    24   ar
    51    22    48    1
    52    23    24   ar
    53    23    49    1
    54    24    50    1
