@<TRIPOS>MOLECULE
IMPHY010363
 76 79 0 0 0
SMALL
GASTEIGER

@<TRIPOS>ATOM
      1 O           2.5357   -3.6598    0.0000 O.3     1  UNL1       -0.3918
      2 C           7.9288   -0.6074    0.0000 C.3     1  UNL1       -0.0259
      3 C           7.9288   -1.6074    0.0000 C.3     1  UNL1       -0.0323
      4 C           7.0628   -2.1074    0.0000 C.3     1  UNL1       -0.0344
      5 C           6.1968   -1.6074    0.0000 C.3     1  UNL1       -0.0323
      6 C           5.2868   -2.1143    0.0000 C.3     1  UNL1       -0.0260
      7 C           8.8750   -0.3027    0.0000 C.3     1  UNL1       -0.0328
      8 C           7.0628   -0.1074    0.0000 C.3     1  UNL1       -0.0468
      9 C           5.2787   -3.1559    0.0000 C.3     1  UNL1       -0.0330
     10 C           6.1968   -0.6074    0.0000 C.3     1  UNL1       -0.0489
     11 C           8.8750   -1.9122    0.0000 C.3     1  UNL1       -0.0492
     12 C           7.0789   -3.1489    0.0000 C.3     1  UNL1       -0.0494
     13 C           9.4586   -1.1074    0.0000 C.3     1  UNL1       -0.0492
     14 C           6.1808   -3.6767    0.0000 C.3     1  UNL1       -0.0494
     15 C           4.3599   -1.5502    0.0000 C.3     1  UNL1       -0.0448
     16 C           7.9288    0.3926    0.0000 C.3     1  UNL1       -0.0590
     17 C           9.1857    0.6478    0.0000 C.3     1  UNL1       -0.0405
     18 C           4.3433   -3.7056    0.0000 C.3     1  UNL1       -0.0235
     19 C           5.2945   -1.1143    0.0000 C.3     1  UNL1       -0.0590
     20 C           3.4120   -2.0781    0.0000 C.3     1  UNL1       -0.0263
     21 C           3.4037   -3.1631    0.0000 C.3     1  UNL1        0.0555
     22 C          10.1642    0.8540    0.0000 C.3     1  UNL1       -0.0502
     23 C           8.5179    1.3921    0.0000 C.3     1  UNL1       -0.0621
     24 C          10.4749    1.8046    0.0000 C.3     1  UNL1       -0.0526
     25 C          11.4534    2.0108    0.0000 C.3     1  UNL1       -0.0507
     26 C          11.7640    2.9613    0.0000 C.3     1  UNL1       -0.0467
     27 C          12.7425    3.1675    0.0000 C.3     1  UNL1       -0.0627
     28 C          11.0962    3.7056    0.0000 C.3     1  UNL1       -0.0627
     29 H           8.0188   -2.4527    0.0000 H       1  UNL1        0.0309
     30 H           7.8022   -2.5267    0.0000 H       1  UNL1        0.0306
     31 H           6.9329   -1.1824    0.0000 H       1  UNL1        0.0309
     32 H           9.7148   -0.1708    0.0000 H       1  UNL1        0.0309
     33 H           7.4613    0.3675    0.0000 H       1  UNL1        0.0271
     34 H           6.6643    0.3675    0.0000 H       1  UNL1        0.0271
     35 H           5.2820   -4.0059    0.0000 H       1  UNL1        0.0307
     36 H           5.9847   -0.0248    0.0000 H       1  UNL1        0.0268
     37 H           5.5862   -0.7151    0.0000 H       1  UNL1        0.0268
     38 H           8.6240   -2.4791    0.0000 H       1  UNL1        0.0268
     39 H           9.4124   -2.2214    0.0000 H       1  UNL1        0.0268
     40 H           7.2969   -3.7293    0.0000 H       1  UNL1        0.0268
     41 H           7.6880   -3.0334    0.0000 H       1  UNL1        0.0268
     42 H           9.9195   -1.5222    0.0000 H       1  UNL1        0.0268
     43 H           9.9195   -0.6927    0.0000 H       1  UNL1        0.0268
     44 H           5.7835   -4.1527    0.0000 H       1  UNL1        0.0268
     45 H           6.5818   -4.1496    0.0000 H       1  UNL1        0.0268
     46 H           4.7681   -1.0835    0.0000 H       1  UNL1        0.0271
     47 H           3.9700   -1.0682    0.0000 H       1  UNL1        0.0271
     48 H           8.5488    0.3926    0.0000 H       1  UNL1        0.0235
     49 H           7.9288    1.0126    0.0000 H       1  UNL1        0.0235
     50 H           7.3088    0.3926    0.0000 H       1  UNL1        0.0235
     51 H           9.3783    1.2371    0.0000 H       1  UNL1        0.0301
     52 H           3.9460   -4.1816    0.0000 H       1  UNL1        0.0293
     53 H           4.7443   -4.1785    0.0000 H       1  UNL1        0.0293
     54 H           5.9145   -1.1191    0.0000 H       1  UNL1        0.0235
     55 H           5.2993   -0.4943    0.0000 H       1  UNL1        0.0235
     56 H           4.6745   -1.1095    0.0000 H       1  UNL1        0.0235
     57 H           3.2075   -1.4929    0.0000 H       1  UNL1        0.0290
     58 H           2.8004   -2.1795    0.0000 H       1  UNL1        0.0290
     59 H           3.4025   -3.7831    0.0000 H       1  UNL1        0.0593
     60 H          10.1848    0.2344    0.0000 H       1  UNL1        0.0268
     61 H          10.7780    0.7667    0.0000 H       1  UNL1        0.0268
     62 H           8.9793    1.8062    0.0000 H       1  UNL1        0.0233
     63 H           8.1038    1.8536    0.0000 H       1  UNL1        0.0233
     64 H           8.0564    0.9781    0.0000 H       1  UNL1        0.0233
     65 H          10.4543    2.4242    0.0000 H       1  UNL1        0.0265
     66 H           9.8611    1.8919    0.0000 H       1  UNL1        0.0265
     67 H           2.0000   -3.3477    0.0000 H       1  UNL1        0.2098
     68 H          11.4739    1.3911    0.0000 H       1  UNL1        0.0268
     69 H          12.0672    1.9234    0.0000 H       1  UNL1        0.0268
     70 H          12.1781    2.4998    0.0000 H       1  UNL1        0.0295
     71 H          12.8704    2.5608    0.0000 H       1  UNL1        0.0232
     72 H          13.3492    3.2954    0.0000 H       1  UNL1        0.0232
     73 H          12.6147    3.7742    0.0000 H       1  UNL1        0.0232
     74 H          11.5577    4.1197    0.0000 H       1  UNL1        0.0232
     75 H          10.6821    4.1671    0.0000 H       1  UNL1        0.0232
     76 H          10.6347    3.2915    0.0000 H       1  UNL1        0.0232
@<TRIPOS>BOND
     1    21     1    1
     2     1    67    1
     3     2     3    1
     4     2     7    1
     5     2     8    1
     6     2    16    1
     7     3     4    1
     8     3    11    1
     9     3    29    1
    10     4     5    1
    11     4    12    1
    12     4    30    1
    13     5     6    1
    14     5    10    1
    15     5    31    1
    16     6     9    1
    17     6    15    1
    18     6    19    1
    19     7    13    1
    20     7    17    1
    21     7    32    1
    22     8    10    1
    23     8    33    1
    24     8    34    1
    25     9    14    1
    26     9    18    1
    27     9    35    1
    28    10    36    1
    29    10    37    1
    30    11    13    1
    31    11    38    1
    32    11    39    1
    33    12    14    1
    34    12    40    1
    35    12    41    1
    36    13    42    1
    37    13    43    1
    38    14    44    1
    39    14    45    1
    40    15    20    1
    41    15    46    1
    42    15    47    1
    43    16    48    1
    44    16    49    1
    45    16    50    1
    46    17    22    1
    47    17    23    1
    48    17    51    1
    49    18    21    1
    50    18    52    1
    51    18    53    1
    52    19    54    1
    53    19    55    1
    54    19    56    1
    55    20    21    1
    56    20    57    1
    57    20    58    1
    58    21    59    1
    59    22    24    1
    60    22    60    1
    61    22    61    1
    62    23    62    1
    63    23    63    1
    64    23    64    1
    65    24    25    1
    66    24    65    1
    67    24    66    1
    68    25    26    1
    69    25    68    1
    70    25    69    1
    71    26    27    1
    72    26    28    1
    73    26    70    1
    74    27    71    1
    75    27    72    1
    76    27    73    1
    77    28    74    1
    78    28    75    1
    79    28    76    1
