@<TRIPOS>MOLECULE
IMPHY000048
 52 52 0 0 0
SMALL
GASTEIGER

@<TRIPOS>ATOM
      1 O           2.0000   -5.5000    0.0000 O.3     1  UNL1       -0.5068
      2 C           5.4641   -0.5000    0.0000 C.3     1  UNL1       -0.0530
      3 C           4.5981   -1.0000    0.0000 C.3     1  UNL1       -0.0528
      4 C           5.4641    0.5000    0.0000 C.3     1  UNL1       -0.0528
      5 C           4.5981   -2.0000    0.0000 C.3     1  UNL1       -0.0491
      6 C           6.3301    1.0000    0.0000 C.3     1  UNL1       -0.0496
      7 C           3.7320   -2.5000    0.0000 C.3     1  UNL1       -0.0276
      8 C           6.3301    2.0000    0.0000 C.3     1  UNL1       -0.0348
      9 C           3.7320   -3.5000    0.0000 C.ar    1  UNL1       -0.0439
     10 C           7.1962    2.5000    0.0000 C.2     1  UNL1       -0.0876
     11 C           2.8660   -4.0000    0.0000 C.ar    1  UNL1       -0.0170
     12 C           4.5981   -4.0000    0.0000 C.ar    1  UNL1       -0.0583
     13 C           7.1962    3.5000    0.0000 C.2     1  UNL1       -0.0842
     14 C           2.8660   -5.0000    0.0000 C.ar    1  UNL1        0.1171
     15 C           4.5981   -5.0000    0.0000 C.ar    1  UNL1       -0.0581
     16 C           6.3301    4.0000    0.0000 C.3     1  UNL1       -0.0165
     17 C           3.7320   -5.5000    0.0000 C.ar    1  UNL1       -0.0202
     18 C           6.3301    5.0000    0.0000 C.2     1  UNL1       -0.0839
     19 C           5.4641    5.5000    0.0000 C.2     1  UNL1       -0.0839
     20 C           4.5981    5.0000    0.0000 C.3     1  UNL1       -0.0168
     21 C           3.7320    5.5000    0.0000 C.2     1  UNL1       -0.0874
     22 C           2.8660    5.0000    0.0000 C.2     1  UNL1       -0.1023
     23 H           5.6762   -1.0826    0.0000 H       1  UNL1        0.0265
     24 H           6.0747   -0.3923    0.0000 H       1  UNL1        0.0265
     25 H           4.3860   -0.4174    0.0000 H       1  UNL1        0.0265
     26 H           3.9875   -1.1077    0.0000 H       1  UNL1        0.0265
     27 H           5.2520    1.0826    0.0000 H       1  UNL1        0.0265
     28 H           4.8535    0.3923    0.0000 H       1  UNL1        0.0265
     29 H           4.8101   -2.5826    0.0000 H       1  UNL1        0.0268
     30 H           5.2087   -1.8923    0.0000 H       1  UNL1        0.0268
     31 H           6.5422    0.4174    0.0000 H       1  UNL1        0.0268
     32 H           6.9407    1.1077    0.0000 H       1  UNL1        0.0268
     33 H           3.5200   -1.9174    0.0000 H       1  UNL1        0.0313
     34 H           3.1215   -2.6077    0.0000 H       1  UNL1        0.0313
     35 H           6.1181    2.5826    0.0000 H       1  UNL1        0.0307
     36 H           5.7196    1.8923    0.0000 H       1  UNL1        0.0307
     37 H           7.7331    2.1900    0.0000 H       1  UNL1        0.0569
     38 H           2.3291   -3.6900    0.0000 H       1  UNL1        0.0657
     39 H           5.1350   -3.6900    0.0000 H       1  UNL1        0.0620
     40 H           7.7331    3.8100    0.0000 H       1  UNL1        0.0572
     41 H           5.1350   -5.3100    0.0000 H       1  UNL1        0.0619
     42 H           5.7196    4.1077    0.0000 H       1  UNL1        0.0350
     43 H           6.1181    3.4174    0.0000 H       1  UNL1        0.0350
     44 H           3.7320   -6.1200    0.0000 H       1  UNL1        0.0654
     45 H           6.8671    5.3100    0.0000 H       1  UNL1        0.0572
     46 H           2.0000   -6.1200    0.0000 H       1  UNL1        0.2921
     47 H           5.4641    6.1200    0.0000 H       1  UNL1        0.0572
     48 H           4.1996    4.5250    0.0000 H       1  UNL1        0.0350
     49 H           4.9966    4.5250    0.0000 H       1  UNL1        0.0350
     50 H           3.7320    6.1200    0.0000 H       1  UNL1        0.0569
     51 H           2.3291    5.3100    0.0000 H       1  UNL1        0.0532
     52 H           2.8660    4.3800    0.0000 H       1  UNL1        0.0532
@<TRIPOS>BOND
     1     1    14    1
     2     1    46    1
     3     2     3    1
     4     2     4    1
     5     2    23    1
     6     2    24    1
     7     3     5    1
     8     3    25    1
     9     3    26    1
    10     4     6    1
    11     4    27    1
    12     4    28    1
    13     5     7    1
    14     5    29    1
    15     5    30    1
    16     6     8    1
    17     6    31    1
    18     6    32    1
    19     7     9    1
    20     7    33    1
    21     7    34    1
    22     8    10    1
    23     8    35    1
    24     8    36    1
    25     9    11   ar
    26     9    12   ar
    27    10    13    2
    28    10    37    1
    29    11    14   ar
    30    11    38    1
    31    12    15   ar
    32    12    39    1
    33    13    16    1
    34    13    40    1
    35    14    17   ar
    36    15    17   ar
    37    15    41    1
    38    16    18    1
    39    16    42    1
    40    16    43    1
    41    17    44    1
    42    18    19    2
    43    18    45    1
    44    19    20    1
    45    19    47    1
    46    20    21    1
    47    20    48    1
    48    20    49    1
    49    21    22    2
    50    21    50    1
    51    22    51    1
    52    22    52    1
