@<TRIPOS>MOLECULE
IMPHY016670
 38 41 0 0 0
SMALL
GASTEIGER

@<TRIPOS>ATOM
      1 O           2.0000   -0.3582    0.0000 O.3     1  UNL1       -0.3647
      2 O           5.6646    2.5742    0.0000 O.3     1  UNL1       -0.3646
      3 O           6.4014   -1.0252    0.0000 O.2     1  UNL1       -0.4672
      4 C           2.7076    0.3490    0.0000 C.3     1  UNL1        0.0936
      5 C           5.6644    1.5738    0.0000 C.3     1  UNL1        0.1000
      6 C           4.7984    2.0738    0.0000 C.3     1  UNL1        0.0886
      7 C           2.9664   -0.6169    0.0000 C.3     1  UNL1        0.0922
      8 C           3.6735    0.6078    0.0000 C.3     1  UNL1       -0.0191
      9 C           3.9324    1.5738    0.0000 C.3     1  UNL1       -0.0212
     10 C           5.6644    0.5738    0.0000 C.3     1  UNL1        0.0371
     11 C           3.9324   -0.3581    0.0000 C.3     1  UNL1        0.0049
     12 C           2.4488    1.3149    0.0000 C.3     1  UNL1       -0.0333
     13 C           6.5304    1.0738    0.0000 C.3     1  UNL1       -0.0329
     14 C           4.7984   -0.8581    0.0000 C.ar    1  UNL1       -0.0009
     15 C           5.6644   -0.3581    0.0000 C.ar    1  UNL1        0.1112
     16 C           5.0076   -1.8299    0.0000 C.ar    1  UNL1       -0.0092
     17 C           5.9963   -1.9330    0.0000 C.ar    1  UNL1        0.0952
     18 C           4.3397   -2.5742    0.0000 C.3     1  UNL1       -0.0365
     19 H           4.4883    2.6107    0.0000 H       1  UNL1        0.0625
     20 H           2.9665   -1.2369    0.0000 H       1  UNL1        0.0628
     21 H           3.7276   -0.0098    0.0000 H       1  UNL1        0.0294
     22 H           4.2912    0.5538    0.0000 H       1  UNL1        0.0294
     23 H           3.7719    2.1726    0.0000 H       1  UNL1        0.0292
     24 H           3.3124    1.5738    0.0000 H       1  UNL1        0.0292
     25 H           6.2013    0.2638    0.0000 H       1  UNL1        0.0372
     26 H           5.0444    0.5738    0.0000 H       1  UNL1        0.0372
     27 H           4.3708    0.0803    0.0000 H       1  UNL1        0.0340
     28 H           3.6224    0.1788    0.0000 H       1  UNL1        0.0340
     29 H           3.0477    1.4754    0.0000 H       1  UNL1        0.0258
     30 H           2.2883    1.9138    0.0000 H       1  UNL1        0.0258
     31 H           1.8499    1.1545    0.0000 H       1  UNL1        0.0258
     32 H           6.2204    0.5368    0.0000 H       1  UNL1        0.0258
     33 H           7.0674    0.7638    0.0000 H       1  UNL1        0.0258
     34 H           6.8404    1.6107    0.0000 H       1  UNL1        0.0258
     35 H           6.3063   -2.4699    0.0000 H       1  UNL1        0.1032
     36 H           3.8783   -2.1601    0.0000 H       1  UNL1        0.0279
     37 H           3.9257   -3.0357    0.0000 H       1  UNL1        0.0279
     38 H           4.8012   -2.9883    0.0000 H       1  UNL1        0.0279
@<TRIPOS>BOND
     1     1     4    1
     2     1     7    1
     3     2     5    1
     4     2     6    1
     5     3    15   ar
     6     3    17   ar
     7     4     7    1
     8     4     8    1
     9     4    12    1
    10     5     6    1
    11     5    10    1
    12     5    13    1
    13     6     9    1
    14     6    19    1
    15     7    11    1
    16     7    20    1
    17     8     9    1
    18     8    21    1
    19     8    22    1
    20     9    23    1
    21     9    24    1
    22    10    15    1
    23    10    25    1
    24    10    26    1
    25    11    14    1
    26    11    27    1
    27    11    28    1
    28    12    29    1
    29    12    30    1
    30    12    31    1
    31    13    32    1
    32    13    33    1
    33    13    34    1
    34    14    15   ar
    35    14    16   ar
    36    16    17   ar
    37    16    18    1
    38    17    35    1
    39    18    36    1
    40    18    37    1
    41    18    38    1
