@<TRIPOS>MOLECULE
IMPHY005840
 29 30 0 0 0
SMALL
GASTEIGER

@<TRIPOS>ATOM
      1 F           5.4641   -4.2500    0.0000 F       1  UNL1       -0.1663
      2 F           6.3301   -2.7500    0.0000 F       1  UNL1       -0.1663
      3 O           2.8660   -1.7500    0.0000 O.3     1  UNL1       -0.4914
      4 O           4.5981   -2.7500    0.0000 O.3     1  UNL1       -0.4305
      5 O           4.5981    4.2500    0.0000 O.2     1  UNL1       -0.2664
      6 N           3.7320    1.7500    0.0000 N.ar    1  UNL1       -0.1709
      7 N           3.7320    2.7500    0.0000 N.ar    1  UNL1       -0.2427
      8 C           4.5981    0.2500    0.0000 C.ar    1  UNL1        0.0057
      9 C           3.7320   -0.2500    0.0000 C.ar    1  UNL1       -0.0071
     10 C           3.7320   -1.2500    0.0000 C.ar    1  UNL1        0.1623
     11 C           4.5981    1.2500    0.0000 C.ar    1  UNL1        0.0915
     12 C           4.5981   -1.7500    0.0000 C.ar    1  UNL1        0.1683
     13 C           5.4641   -0.2500    0.0000 C.ar    1  UNL1       -0.0488
     14 C           5.4641   -1.2500    0.0000 C.ar    1  UNL1       -0.0155
     15 C           5.4641    1.7500    0.0000 C.ar    1  UNL1       -0.0289
     16 C           5.4641    2.7500    0.0000 C.ar    1  UNL1        0.0062
     17 C           4.5981    3.2500    0.0000 C.ar    1  UNL1        0.2647
     18 C           2.0000   -1.2500    0.0000 C.3     1  UNL1        0.0790
     19 C           5.4641   -3.2500    0.0000 C.3     1  UNL1        0.3894
     20 H           3.1951    0.0600    0.0000 H       1  UNL1        0.0662
     21 H           6.0010    0.0600    0.0000 H       1  UNL1        0.0625
     22 H           6.0010   -1.5600    0.0000 H       1  UNL1        0.0655
     23 H           6.0010    1.4400    0.0000 H       1  UNL1        0.0641
     24 H           6.0010    3.0600    0.0000 H       1  UNL1        0.0673
     25 H           3.1951    3.0600    0.0000 H       1  UNL1        0.1921
     26 H           2.3100   -0.7131    0.0000 H       1  UNL1        0.0660
     27 H           1.4631   -0.9400    0.0000 H       1  UNL1        0.0660
     28 H           1.6900   -1.7869    0.0000 H       1  UNL1        0.0660
     29 H           5.4641   -2.6300    0.0000 H       1  UNL1        0.1520
@<TRIPOS>BOND
     1     1    19    1
     2     2    19    1
     3     3    10    1
     4     3    18    1
     5     4    12    1
     6     4    19    1
     7     5    17    2
     8     6     7   ar
     9     6    11   ar
    10     7    17   ar
    11     7    25    1
    12     8     9   ar
    13     8    11    1
    14     8    13   ar
    15     9    10   ar
    16     9    20    1
    17    10    12   ar
    18    11    15   ar
    19    12    14   ar
    20    13    14   ar
    21    13    21    1
    22    14    22    1
    23    15    16   ar
    24    15    23    1
    25    16    17   ar
    26    16    24    1
    27    18    26    1
    28    18    27    1
    29    18    28    1
    30    19    29    1
