@<TRIPOS>MOLECULE
IMPHY007842
 44 46 0 0 0
SMALL
GASTEIGER

@<TRIPOS>ATOM
      1 O           3.7230   -1.2986    0.0000 O.3     1  UNL1       -0.4600
      2 O           4.5447    1.8667    0.0000 O.3     1  UNL1       -0.4608
      3 O           5.4378   -3.1939    0.0000 O.3     1  UNL1       -0.3841
      4 O           2.0000   -0.8665    0.0000 O.2     1  UNL1       -0.2505
      5 O           6.1053    2.6182    0.0000 O.2     1  UNL1       -0.2512
      6 C           4.3551    0.1839    0.0000 C.3     1  UNL1        0.0468
      7 C           4.5777   -0.7910    0.0000 C.3     1  UNL1        0.1197
      8 C           5.4786   -1.2249    0.0000 C.3     1  UNL1        0.0536
      9 C           4.9786    0.9658    0.0000 C.3     1  UNL1        0.1136
     10 C           3.3648    0.2705    0.0000 C.3     1  UNL1        0.0632
     11 C           5.6146   -2.2096    0.0000 C.3     1  UNL1        0.0918
     12 C           6.3796   -0.7910    0.0000 C.2     1  UNL1       -0.0388
     13 C           5.9786    0.9658    0.0000 C.3     1  UNL1        0.0063
     14 C           6.6021    0.1839    0.0000 C.2     1  UNL1       -0.0655
     15 C           2.9749   -0.6440    0.0000 C.2     1  UNL1        0.3107
     16 C           6.5929   -2.3863    0.0000 C.2     1  UNL1       -0.0522
     17 C           7.0647   -1.5113    0.0000 C.2     1  UNL1       -0.0594
     18 C           2.8504    1.1280    0.0000 C.3     1  UNL1       -0.0518
     19 C           4.6239   -2.3456    0.0000 C.3     1  UNL1       -0.0317
     20 C           7.5770    0.4064    0.0000 C.3     1  UNL1       -0.0431
     21 C           5.1081    2.6930    0.0000 C.2     1  UNL1        0.3042
     22 C           4.6742    3.5939    0.0000 C.3     1  UNL1        0.0332
     23 H           4.0200    0.9651    0.0000 H       1  UNL1        0.0381
     24 H           4.6147   -1.6402    0.0000 H       1  UNL1        0.0745
     25 H           4.7916   -1.7254    0.0000 H       1  UNL1        0.0416
     26 H           5.3085    1.4907    0.0000 H       1  UNL1        0.0741
     27 H           3.6936    0.7961    0.0000 H       1  UNL1        0.0416
     28 H           6.5372    1.2348    0.0000 H       1  UNL1        0.0346
     29 H           5.8407    1.5702    0.0000 H       1  UNL1        0.0346
     30 H           6.8619   -2.9449    0.0000 H       1  UNL1        0.0600
     31 H           7.6792   -1.4291    0.0000 H       1  UNL1        0.0618
     32 H           3.3821    1.4469    0.0000 H       1  UNL1        0.0238
     33 H           2.5315    1.6597    0.0000 H       1  UNL1        0.0238
     34 H           2.3188    0.8091    0.0000 H       1  UNL1        0.0238
     35 H           4.5396   -1.7313    0.0000 H       1  UNL1        0.0261
     36 H           4.0097   -2.4299    0.0000 H       1  UNL1        0.0261
     37 H           4.7082   -2.9598    0.0000 H       1  UNL1        0.0261
     38 H           7.7150   -0.1980    0.0000 H       1  UNL1        0.0275
     39 H           8.1815    0.5444    0.0000 H       1  UNL1        0.0275
     40 H           7.4391    1.0109    0.0000 H       1  UNL1        0.0275
     41 H           5.9114   -3.5939    0.0000 H       1  UNL1        0.2106
     42 H           5.2328    3.8629    0.0000 H       1  UNL1        0.0342
     43 H           4.4052    4.1525    0.0000 H       1  UNL1        0.0342
     44 H           4.1156    3.3249    0.0000 H       1  UNL1        0.0342
@<TRIPOS>BOND
     1     1     7    1
     2     1    15    1
     3     9     2    1
     4     2    21    1
     5    11     3    1
     6     3    41    1
     7     4    15    2
     8     5    21    2
     9     6     7    1
    10     6     9    1
    11     6    10    1
    12     6    23    1
    13     7     8    1
    14     7    24    1
    15     8    11    1
    16     8    12    1
    17     8    25    1
    18     9    13    1
    19     9    26    1
    20    10    15    1
    21    10    18    1
    22    10    27    1
    23    11    16    1
    24    11    19    1
    25    12    14    2
    26    12    17    1
    27    13    14    1
    28    13    28    1
    29    13    29    1
    30    14    20    1
    31    16    17    2
    32    16    30    1
    33    17    31    1
    34    18    32    1
    35    18    33    1
    36    18    34    1
    37    19    35    1
    38    19    36    1
    39    19    37    1
    40    20    38    1
    41    20    39    1
    42    20    40    1
    43    21    22    1
    44    22    42    1
    45    22    43    1
    46    22    44    1
