@<TRIPOS>MOLECULE
IMPHY013609
 37 38 0 0 0
SMALL
GASTEIGER

@<TRIPOS>ATOM
      1 O           2.0453   -2.2443    0.0000 O.2     1  UNL1       -0.2968
      2 O           2.0000    1.8610    0.0000 O.2     1  UNL1       -0.2921
      3 C           3.4466   -1.2262    0.0000 C.3     1  UNL1        0.0497
      4 C           3.3421   -0.2317    0.0000 C.3     1  UNL1       -0.0357
      5 C           2.5330   -0.8195    0.0000 C.3     1  UNL1       -0.0357
      6 C           4.4411   -1.1217    0.0000 C.2     1  UNL1       -0.0592
      7 C           3.0399   -2.1397    0.0000 C.2     1  UNL1        0.1404
      8 C           4.8479   -0.2081    0.0000 C.2     1  UNL1       -0.0585
      9 C           3.7601    2.1397    0.0000 C.3     1  UNL1        0.0314
     10 C           4.2601    0.6009    0.0000 C.2     1  UNL1       -0.0432
     11 C           4.5691    1.5520    0.0000 C.3     1  UNL1       -0.0154
     12 C           5.0289   -1.9307    0.0000 C.3     1  UNL1       -0.0426
     13 C           3.6276   -2.9488    0.0000 C.3     1  UNL1       -0.0052
     14 C           2.9511    1.5520    0.0000 C.2     1  UNL1        0.1622
     15 C           3.2601    0.6009    0.0000 C.2     1  UNL1       -0.0155
     16 C           4.3479    2.9488    0.0000 C.3     1  UNL1       -0.0525
     17 C           3.1723    2.9488    0.0000 C.3     1  UNL1       -0.0525
     18 H           3.9380   -0.0608    0.0000 H       1  UNL1        0.0278
     19 H           3.0703    0.3256    0.0000 H       1  UNL1        0.0278
     20 H           2.0871   -0.3888    0.0000 H       1  UNL1        0.0278
     21 H           2.1864   -1.3335    0.0000 H       1  UNL1        0.0278
     22 H           5.4645   -0.1433    0.0000 H       1  UNL1        0.0620
     23 H           5.1355    1.2998    0.0000 H       1  UNL1        0.0323
     24 H           4.8791    2.0889    0.0000 H       1  UNL1        0.0323
     25 H           4.5273   -2.2951    0.0000 H       1  UNL1        0.0275
     26 H           5.3933   -2.4323    0.0000 H       1  UNL1        0.0275
     27 H           5.5305   -1.5663    0.0000 H       1  UNL1        0.0275
     28 H           3.1261   -3.3132    0.0000 H       1  UNL1        0.0306
     29 H           3.9921   -3.4504    0.0000 H       1  UNL1        0.0306
     30 H           4.1292   -2.5843    0.0000 H       1  UNL1        0.0306
     31 H           2.8956    0.0993    0.0000 H       1  UNL1        0.0655
     32 H           4.8494    2.5843    0.0000 H       1  UNL1        0.0239
     33 H           4.7123    3.4504    0.0000 H       1  UNL1        0.0239
     34 H           3.8463    3.3132    0.0000 H       1  UNL1        0.0239
     35 H           3.6739    3.3132    0.0000 H       1  UNL1        0.0239
     36 H           2.8079    3.4504    0.0000 H       1  UNL1        0.0239
     37 H           2.6707    2.5843    0.0000 H       1  UNL1        0.0239
@<TRIPOS>BOND
     1     1     7    2
     2     2    14    2
     3     3     4    1
     4     3     5    1
     5     3     6    1
     6     3     7    1
     7     4     5    1
     8     4    18    1
     9     4    19    1
    10     5    20    1
    11     5    21    1
    12     6     8    2
    13     6    12    1
    14     7    13    1
    15     8    10    1
    16     8    22    1
    17     9    11    1
    18     9    14    1
    19     9    16    1
    20     9    17    1
    21    10    11    1
    22    10    15    2
    23    11    23    1
    24    11    24    1
    25    12    25    1
    26    12    26    1
    27    12    27    1
    28    13    28    1
    29    13    29    1
    30    13    30    1
    31    14    15    1
    32    15    31    1
    33    16    32    1
    34    16    33    1
    35    16    34    1
    36    17    35    1
    37    17    36    1
    38    17    37    1
