@<TRIPOS>MOLECULE
IMPHY010245
 187 195 0 0 0
SMALL
GASTEIGER

@<TRIPOS>ATOM
      1 O          25.2464    1.8529    0.0000 O.3     1  UNL1       -0.3876
      2 O          24.3669   -1.6437    0.0000 O.3     1  UNL1       -0.4569
      3 O          22.6387   -0.6370    0.0000 O.3     1  UNL1       -0.4575
      4 O          19.8574    2.9260    0.0000 O.3     1  UNL1       -0.3477
      5 O          26.7156   -2.1038    0.0000 O.2     1  UNL1       -0.2974
      6 O          25.8636   -2.5155    0.0000 O.2     1  UNL1       -0.2508
      7 O          23.4990   -2.1404    0.0000 O.2     1  UNL1       -0.2512
      8 O          18.1254    2.9260    0.0000 O.3     1  UNL1       -0.3456
      9 O          18.1254   -0.0740    0.0000 O.3     1  UNL1       -0.3770
     10 O          16.3933    0.9260    0.0000 O.3     1  UNL1       -0.3429
     11 O          15.5273    2.4260    0.0000 O.3     1  UNL1       -0.3456
     12 O          12.9292    0.9260    0.0000 O.3     1  UNL1       -0.3770
     13 O          12.9292    2.9260    0.0000 O.3     1  UNL1       -0.3429
     14 O          11.1972    2.9260    0.0000 O.3     1  UNL1       -0.3456
     15 O           9.4651    0.9260    0.0000 O.3     1  UNL1       -0.3403
     16 O          11.1972   -0.0740    0.0000 O.3     1  UNL1       -0.3770
     17 O           8.5991    2.4260    0.0000 O.3     1  UNL1       -0.3431
     18 O           6.0010    2.9260    0.0000 O.3     1  UNL1       -0.3402
     19 O           6.0010    0.9260    0.0000 O.3     1  UNL1       -0.3744
     20 O           7.7331   -0.0740    0.0000 O.3     1  UNL1       -0.3841
     21 O           5.1350    1.4260    0.0000 O.3     1  UNL1       -0.3405
     22 O           4.2690    3.9260    0.0000 O.3     1  UNL1       -0.3841
     23 O           2.5369    2.9260    0.0000 O.3     1  UNL1       -0.3864
     24 O           2.5369    0.9260    0.0000 O.3     1  UNL1       -0.3865
     25 O           3.4030   -0.5740    0.0000 O.3     1  UNL1       -0.3924
     26 C          25.2387   -0.1471    0.0000 C.3     1  UNL1        0.0469
     27 C          25.2426    0.8529    0.0000 C.3     1  UNL1        0.0791
     28 C          24.3785    1.3563    0.0000 C.3     1  UNL1       -0.0010
     29 C          23.5105    0.8596    0.0000 C.3     1  UNL1        0.0145
     30 C          24.3708   -0.6437    0.0000 C.3     1  UNL1        0.1486
     31 C          22.6025    1.3700    0.0000 C.3     1  UNL1       -0.0043
     32 C          23.5067   -0.1404    0.0000 C.3     1  UNL1        0.1443
     33 C          26.1838   -0.4554    0.0000 C.3     1  UNL1        0.0288
     34 C          26.1900    1.1540    0.0000 C.3     1  UNL1       -0.0224
     35 C          26.7705    0.3470    0.0000 C.3     1  UNL1       -0.0402
     36 C          24.3986    2.3977    0.0000 C.3     1  UNL1       -0.0286
     37 C          25.2349   -1.1470    0.0000 C.3     1  UNL1       -0.0527
     38 C          22.5985    2.4116    0.0000 C.2     1  UNL1       -0.0647
     39 C          21.6735    0.8095    0.0000 C.3     1  UNL1       -0.0412
     40 C          23.5026    2.9289    0.0000 C.2     1  UNL1       -0.0838
     41 C          22.6064    0.3700    0.0000 C.3     1  UNL1       -0.0555
     42 C          21.6652    2.9649    0.0000 C.3     1  UNL1       -0.0047
     43 C          26.9255   -1.1261    0.0000 C.2     1  UNL1        0.1341
     44 C          20.7277    1.3410    0.0000 C.3     1  UNL1       -0.0254
     45 C          20.7235    2.4260    0.0000 C.3     1  UNL1        0.0654
     46 C          27.8772   -0.8191    0.0000 C.3     1  UNL1       -0.0058
     47 C          24.8636   -2.5117    0.0000 C.2     1  UNL1        0.3077
     48 C          22.6349   -1.6370    0.0000 C.2     1  UNL1        0.3043
     49 C          24.3602   -3.3758    0.0000 C.3     1  UNL1        0.0473
     50 C          18.9914    2.4260    0.0000 C.3     1  UNL1        0.1624
     51 C          21.7669   -2.1337    0.0000 C.3     1  UNL1        0.0332
     52 C          23.3603   -3.3719    0.0000 C.3     1  UNL1       -0.0367
     53 C          18.9914    1.4260    0.0000 C.3     1  UNL1        0.0272
     54 C          18.1254    0.9260    0.0000 C.3     1  UNL1        0.0915
     55 C          17.2594    2.4260    0.0000 C.3     1  UNL1        0.0875
     56 C          17.2594    1.4260    0.0000 C.3     1  UNL1        0.1137
     57 C          22.8570   -4.2360    0.0000 C.3     1  UNL1       -0.0622
     58 C          22.8636   -2.5040    0.0000 C.3     1  UNL1       -0.0622
     59 C          16.3933    2.9260    0.0000 C.3     1  UNL1       -0.0361
     60 C          15.5273    1.4260    0.0000 C.3     1  UNL1        0.1626
     61 C          18.9914   -0.5740    0.0000 C.3     1  UNL1        0.0369
     62 C          14.6613    0.9260    0.0000 C.3     1  UNL1        0.0272
     63 C          13.7953    1.4260    0.0000 C.3     1  UNL1        0.0915
     64 C          14.6613    2.9260    0.0000 C.3     1  UNL1        0.0875
     65 C          13.7953    2.4260    0.0000 C.3     1  UNL1        0.1137
     66 C          14.6613    3.9260    0.0000 C.3     1  UNL1       -0.0361
     67 C          12.0632    2.4260    0.0000 C.3     1  UNL1        0.1626
     68 C          12.9292   -0.0740    0.0000 C.3     1  UNL1        0.0369
     69 C          12.0632    1.4260    0.0000 C.3     1  UNL1        0.0272
     70 C          11.1972    0.9260    0.0000 C.3     1  UNL1        0.0915
     71 C          10.3312    1.4260    0.0000 C.3     1  UNL1        0.1138
     72 C          10.3312    2.4260    0.0000 C.3     1  UNL1        0.0875
     73 C           9.4651    2.9260    0.0000 C.3     1  UNL1       -0.0361
     74 C           8.5991    1.4260    0.0000 C.3     1  UNL1        0.1883
     75 C           7.7331    0.9260    0.0000 C.3     1  UNL1        0.1344
     76 C           6.8671    1.4260    0.0000 C.3     1  UNL1        0.1174
     77 C           6.8671    2.4260    0.0000 C.3     1  UNL1        0.1162
     78 C           7.7331    2.9260    0.0000 C.3     1  UNL1        0.0877
     79 C          10.3312   -0.5740    0.0000 C.3     1  UNL1        0.0369
     80 C           5.1350    2.4260    0.0000 C.3     1  UNL1        0.1884
     81 C           7.7331    3.9260    0.0000 C.3     1  UNL1       -0.0360
     82 C           4.2690    2.9260    0.0000 C.3     1  UNL1        0.1341
     83 C           3.4030    2.4260    0.0000 C.3     1  UNL1        0.1141
     84 C           3.4030    1.4260    0.0000 C.3     1  UNL1        0.1119
     85 C           4.2690    0.9260    0.0000 C.3     1  UNL1        0.1130
     86 C           6.0010   -0.0740    0.0000 C.3     1  UNL1        0.0370
     87 C           4.2690   -0.0740    0.0000 C.3     1  UNL1        0.0730
     88 H          24.9190    1.6600    0.0000 H       1  UNL1        0.0336
     89 H          24.0463    0.5475    0.0000 H       1  UNL1        0.0350
     90 H          23.8327   -0.9516    0.0000 H       1  UNL1        0.0778
     91 H          22.9709    0.1717    0.0000 H       1  UNL1        0.0775
     92 H          25.8729   -0.9918    0.0000 H       1  UNL1        0.0385
     93 H          26.7285    1.4612    0.0000 H       1  UNL1        0.0293
     94 H          25.9411    1.7219    0.0000 H       1  UNL1        0.0293
     95 H          27.2297   -0.0695    0.0000 H       1  UNL1        0.0273
     96 H          27.2329    0.7600    0.0000 H       1  UNL1        0.0273
     97 H          25.0073    2.2799    0.0000 H       1  UNL1        0.0311
     98 H          24.6188    2.9773    0.0000 H       1  UNL1        0.0311
     99 H          24.6149   -1.1447    0.0000 H       1  UNL1        0.0237
    100 H          25.2325   -1.7670    0.0000 H       1  UNL1        0.0237
    101 H          25.8549   -1.1494    0.0000 H       1  UNL1        0.0237
    102 H          21.2817    0.3289    0.0000 H       1  UNL1        0.0274
    103 H          22.0799    0.3412    0.0000 H       1  UNL1        0.0274
    104 H          23.5073    3.5489    0.0000 H       1  UNL1        0.0572
    105 H          25.7846    2.1608    0.0000 H       1  UNL1        0.2102
    106 H          21.9864    0.3676    0.0000 H       1  UNL1        0.0238
    107 H          22.6087   -0.2500    0.0000 H       1  UNL1        0.0238
    108 H          23.2263    0.3724    0.0000 H       1  UNL1        0.0238
    109 H          22.0680    3.4362    0.0000 H       1  UNL1        0.0335
    110 H          21.2697    3.4424    0.0000 H       1  UNL1        0.0335
    111 H          20.1164    1.4448    0.0000 H       1  UNL1        0.0290
    112 H          20.5208    0.7566    0.0000 H       1  UNL1        0.0290
    113 H          20.1871    2.1150    0.0000 H       1  UNL1        0.0600
    114 H          28.0675   -1.4092    0.0000 H       1  UNL1        0.0306
    115 H          28.4673   -0.6288    0.0000 H       1  UNL1        0.0306
    116 H          27.6869   -0.2291    0.0000 H       1  UNL1        0.0306
    117 H          24.2503   -3.9859    0.0000 H       1  UNL1        0.0380
    118 H          24.9420   -3.5900    0.0000 H       1  UNL1        0.0380
    119 H          18.9914    3.0460    0.0000 H       1  UNL1        0.0910
    120 H          21.4590   -1.5956    0.0000 H       1  UNL1        0.0342
    121 H          21.2288   -2.4416    0.0000 H       1  UNL1        0.0342
    122 H          22.0749   -2.6718    0.0000 H       1  UNL1        0.0342
    123 H          23.6683   -3.9101    0.0000 H       1  UNL1        0.0301
    124 H          19.2035    0.8434    0.0000 H       1  UNL1        0.0340
    125 H          19.6020    1.5337    0.0000 H       1  UNL1        0.0340
    126 H          18.6623    0.6160    0.0000 H       1  UNL1        0.0624
    127 H          17.2594    3.0460    0.0000 H       1  UNL1        0.0621
    128 H          16.7224    1.7360    0.0000 H       1  UNL1        0.0649
    129 H          22.3213   -3.9240    0.0000 H       1  UNL1        0.0232
    130 H          22.5449   -4.7718    0.0000 H       1  UNL1        0.0232
    131 H          23.3927   -4.5481    0.0000 H       1  UNL1        0.0232
    132 H          23.4017   -2.1960    0.0000 H       1  UNL1        0.0232
    133 H          22.5557   -1.9659    0.0000 H       1  UNL1        0.0232
    134 H          22.3255   -2.8119    0.0000 H       1  UNL1        0.0232
    135 H          16.7033    3.4630    0.0000 H       1  UNL1        0.0255
    136 H          15.8564    3.2360    0.0000 H       1  UNL1        0.0255
    137 H          16.0833    2.3891    0.0000 H       1  UNL1        0.0255
    138 H          15.5273    0.8060    0.0000 H       1  UNL1        0.0910
    139 H          18.6814   -1.1109    0.0000 H       1  UNL1        0.0524
    140 H          19.5284   -0.8840    0.0000 H       1  UNL1        0.0524
    141 H          19.3014   -0.0370    0.0000 H       1  UNL1        0.0524
    142 H          14.2628    0.4511    0.0000 H       1  UNL1        0.0340
    143 H          15.0598    0.4511    0.0000 H       1  UNL1        0.0340
    144 H          13.7953    0.8060    0.0000 H       1  UNL1        0.0624
    145 H          15.1982    3.2360    0.0000 H       1  UNL1        0.0621
    146 H          13.7953    3.0460    0.0000 H       1  UNL1        0.0649
    147 H          15.2813    3.9260    0.0000 H       1  UNL1        0.0255
    148 H          14.6613    4.5460    0.0000 H       1  UNL1        0.0255
    149 H          14.0413    3.9260    0.0000 H       1  UNL1        0.0255
    150 H          12.6002    2.1160    0.0000 H       1  UNL1        0.0910
    151 H          12.3092   -0.0740    0.0000 H       1  UNL1        0.0524
    152 H          12.9292   -0.6940    0.0000 H       1  UNL1        0.0524
    153 H          13.5492   -0.0740    0.0000 H       1  UNL1        0.0524
    154 H          12.2753    0.8434    0.0000 H       1  UNL1        0.0340
    155 H          12.6738    1.5337    0.0000 H       1  UNL1        0.0340
    156 H          11.7341    0.6160    0.0000 H       1  UNL1        0.0624
    157 H           9.7942    1.7360    0.0000 H       1  UNL1        0.0649
    158 H          10.3312    3.0460    0.0000 H       1  UNL1        0.0621
    159 H           9.7751    3.4630    0.0000 H       1  UNL1        0.0255
    160 H           8.9282    3.2360    0.0000 H       1  UNL1        0.0255
    161 H           9.1551    2.3891    0.0000 H       1  UNL1        0.0255
    162 H           8.5991    0.8060    0.0000 H       1  UNL1        0.0938
    163 H           7.1962    0.6160    0.0000 H       1  UNL1        0.0671
    164 H           6.3301    1.7360    0.0000 H       1  UNL1        0.0650
    165 H           6.8671    3.0460    0.0000 H       1  UNL1        0.0650
    166 H           8.2700    3.2360    0.0000 H       1  UNL1        0.0621
    167 H          10.0212   -0.0370    0.0000 H       1  UNL1        0.0524
    168 H           9.7942   -0.8840    0.0000 H       1  UNL1        0.0524
    169 H          10.6412   -1.1109    0.0000 H       1  UNL1        0.0524
    170 H           5.1350    3.0460    0.0000 H       1  UNL1        0.0938
    171 H           8.3531    3.9260    0.0000 H       1  UNL1        0.0255
    172 H           7.7331    4.5460    0.0000 H       1  UNL1        0.0255
    173 H           7.1131    3.9260    0.0000 H       1  UNL1        0.0255
    174 H           3.7320    3.2360    0.0000 H       1  UNL1        0.0671
    175 H           8.2700   -0.3840    0.0000 H       1  UNL1        0.2101
    176 H           3.9399    2.1160    0.0000 H       1  UNL1        0.0648
    177 H           3.4030    0.8060    0.0000 H       1  UNL1        0.0647
    178 H           4.8059    0.6160    0.0000 H       1  UNL1        0.0647
    179 H           5.3810   -0.0740    0.0000 H       1  UNL1        0.0524
    180 H           6.0010   -0.6940    0.0000 H       1  UNL1        0.0524
    181 H           6.6210   -0.0740    0.0000 H       1  UNL1        0.0524
    182 H           4.4810   -0.6566    0.0000 H       1  UNL1        0.0584
    183 H           4.8796    0.0337    0.0000 H       1  UNL1        0.0584
    184 H           3.7320    4.2360    0.0000 H       1  UNL1        0.2101
    185 H           2.0000    2.6160    0.0000 H       1  UNL1        0.2100
    186 H           2.0000    1.2360    0.0000 H       1  UNL1        0.2100
    187 H           3.4030   -1.1940    0.0000 H       1  UNL1        0.2095
@<TRIPOS>BOND
     1     1    27    1
     2     1   105    1
     3     2    30    1
     4     2    47    1
     5     3    32    1
     6     3    48    1
     7     4    45    1
     8     4    50    1
     9     5    43    2
    10     6    47    2
    11     7    48    2
    12     8    50    1
    13     8    55    1
    14     9    54    1
    15     9    61    1
    16    10    56    1
    17    10    60    1
    18    11    60    1
    19    11    64    1
    20    12    63    1
    21    12    68    1
    22    13    65    1
    23    13    67    1
    24    14    67    1
    25    14    72    1
    26    15    71    1
    27    15    74    1
    28    16    70    1
    29    16    79    1
    30    17    74    1
    31    17    78    1
    32    18    77    1
    33    18    80    1
    34    19    76    1
    35    19    86    1
    36    20    75    1
    37    20   175    1
    38    21    80    1
    39    21    85    1
    40    22    82    1
    41    22   184    1
    42    23    83    1
    43    23   185    1
    44    24    84    1
    45    24   186    1
    46    25    87    1
    47    25   187    1
    48    26    27    1
    49    26    30    1
    50    26    33    1
    51    26    37    1
    52    27    28    1
    53    27    34    1
    54    28    29    1
    55    28    36    1
    56    28    88    1
    57    29    31    1
    58    29    32    1
    59    29    89    1
    60    30    32    1
    61    30    90    1
    62    31    38    1
    63    31    39    1
    64    31    41    1
    65    32    91    1
    66    33    35    1
    67    33    43    1
    68    33    92    1
    69    34    35    1
    70    34    93    1
    71    34    94    1
    72    35    95    1
    73    35    96    1
    74    36    40    1
    75    36    97    1
    76    36    98    1
    77    37    99    1
    78    37   100    1
    79    37   101    1
    80    38    40    2
    81    38    42    1
    82    39    44    1
    83    39   102    1
    84    39   103    1
    85    40   104    1
    86    41   106    1
    87    41   107    1
    88    41   108    1
    89    42    45    1
    90    42   109    1
    91    42   110    1
    92    43    46    1
    93    44    45    1
    94    44   111    1
    95    44   112    1
    96    45   113    1
    97    46   114    1
    98    46   115    1
    99    46   116    1
   100    47    49    1
   101    48    51    1
   102    49    52    1
   103    49   117    1
   104    49   118    1
   105    50    53    1
   106    50   119    1
   107    51   120    1
   108    51   121    1
   109    51   122    1
   110    52    57    1
   111    52    58    1
   112    52   123    1
   113    53    54    1
   114    53   124    1
   115    53   125    1
   116    54    56    1
   117    54   126    1
   118    55    56    1
   119    55    59    1
   120    55   127    1
   121    56   128    1
   122    57   129    1
   123    57   130    1
   124    57   131    1
   125    58   132    1
   126    58   133    1
   127    58   134    1
   128    59   135    1
   129    59   136    1
   130    59   137    1
   131    60    62    1
   132    60   138    1
   133    61   139    1
   134    61   140    1
   135    61   141    1
   136    62    63    1
   137    62   142    1
   138    62   143    1
   139    63    65    1
   140    63   144    1
   141    64    65    1
   142    64    66    1
   143    64   145    1
   144    65   146    1
   145    66   147    1
   146    66   148    1
   147    66   149    1
   148    67    69    1
   149    67   150    1
   150    68   151    1
   151    68   152    1
   152    68   153    1
   153    69    70    1
   154    69   154    1
   155    69   155    1
   156    70    71    1
   157    70   156    1
   158    71    72    1
   159    71   157    1
   160    72    73    1
   161    72   158    1
   162    73   159    1
   163    73   160    1
   164    73   161    1
   165    74    75    1
   166    74   162    1
   167    75    76    1
   168    75   163    1
   169    76    77    1
   170    76   164    1
   171    77    78    1
   172    77   165    1
   173    78    81    1
   174    78   166    1
   175    79   167    1
   176    79   168    1
   177    79   169    1
   178    80    82    1
   179    80   170    1
   180    81   171    1
   181    81   172    1
   182    81   173    1
   183    82    83    1
   184    82   174    1
   185    83    84    1
   186    83   176    1
   187    84    85    1
   188    84   177    1
   189    85    87    1
   190    85   178    1
   191    86   179    1
   192    86   180    1
   193    86   181    1
   194    87   182    1
   195    87   183    1
