@<TRIPOS>MOLECULE
IMPHY003355
 37 39 0 0 0
SMALL
GASTEIGER

@<TRIPOS>ATOM
      1 O           5.5301   -0.2704    0.0000 O.3     1  UNL1       -0.4802
      2 O           7.2622    1.7296    0.0000 O.3     1  UNL1       -0.3798
      3 O           5.5301    2.7296    0.0000 O.2     1  UNL1       -0.2889
      4 O           3.7817    2.7642    0.0000 O.3     1  UNL1       -0.5056
      5 O           2.0000   -0.2945    0.0000 O.3     1  UNL1       -0.5063
      6 O           8.1282   -2.7704    0.0000 O.3     1  UNL1       -0.5033
      7 O           9.8602   -1.7704    0.0000 O.3     1  UNL1       -0.5033
      8 C           6.3961    0.2296    0.0000 C.3     1  UNL1        0.1582
      9 C           6.3961    1.2296    0.0000 C.3     1  UNL1        0.1585
     10 C           4.6641    1.2296    0.0000 C.ar    1  UNL1        0.1036
     11 C           5.5301    1.7296    0.0000 C.2     1  UNL1        0.2024
     12 C           7.2622   -0.2704    0.0000 C.ar    1  UNL1       -0.0007
     13 C           4.6641    0.2296    0.0000 C.ar    1  UNL1        0.1391
     14 C           3.7702    1.7643    0.0000 C.ar    1  UNL1        0.1373
     15 C           3.7702   -0.3051    0.0000 C.ar    1  UNL1        0.0228
     16 C           2.8641    1.2504    0.0000 C.ar    1  UNL1        0.0332
     17 C           7.2622   -1.2704    0.0000 C.ar    1  UNL1       -0.0098
     18 C           8.1282    0.2296    0.0000 C.ar    1  UNL1       -0.0513
     19 C           2.8641    0.2088    0.0000 C.ar    1  UNL1        0.1267
     20 C           8.1282   -1.7704    0.0000 C.ar    1  UNL1        0.1586
     21 C           8.9942   -0.2704    0.0000 C.ar    1  UNL1       -0.0162
     22 C           2.0000    1.7538    0.0000 C.3     1  UNL1       -0.0327
     23 C           8.9942   -1.2704    0.0000 C.ar    1  UNL1        0.1582
     24 H           6.9331    0.5396    0.0000 H       1  UNL1        0.0815
     25 H           6.3961    1.8496    0.0000 H       1  UNL1        0.0718
     26 H           3.7773   -0.9250    0.0000 H       1  UNL1        0.0691
     27 H           6.7252   -1.5804    0.0000 H       1  UNL1        0.0659
     28 H           8.1282    0.8496    0.0000 H       1  UNL1        0.0623
     29 H           7.2622    2.3496    0.0000 H       1  UNL1        0.2105
     30 H           9.5312    0.0396    0.0000 H       1  UNL1        0.0655
     31 H           2.3121    2.2895    0.0000 H       1  UNL1        0.0280
     32 H           1.4643    2.0658    0.0000 H       1  UNL1        0.0280
     33 H           1.6879    1.2180    0.0000 H       1  UNL1        0.0280
     34 H           3.2484    3.0804    0.0000 H       1  UNL1        0.2922
     35 H           2.0024   -0.9145    0.0000 H       1  UNL1        0.2921
     36 H           8.6651   -3.0804    0.0000 H       1  UNL1        0.2923
     37 H          10.3972   -1.4604    0.0000 H       1  UNL1        0.2923
@<TRIPOS>BOND
     1     1     8    1
     2     1    13    1
     3     9     2    1
     4     2    29    1
     5     3    11    2
     6     4    14    1
     7     4    34    1
     8     5    19    1
     9     5    35    1
    10     6    20    1
    11     6    36    1
    12     7    23    1
    13     7    37    1
    14     8     9    1
    15     8    12    1
    16     8    24    1
    17     9    11    1
    18     9    25    1
    19    10    11    1
    20    10    13   ar
    21    10    14   ar
    22    12    17   ar
    23    12    18   ar
    24    13    15   ar
    25    14    16   ar
    26    15    19   ar
    27    15    26    1
    28    16    19   ar
    29    16    22    1
    30    17    20   ar
    31    17    27    1
    32    18    21   ar
    33    18    28    1
    34    20    23   ar
    35    21    23   ar
    36    21    30    1
    37    22    31    1
    38    22    32    1
    39    22    33    1
