@<TRIPOS>MOLECULE
IMPHY009724
 59 62 0 0 0
SMALL
GASTEIGER

@<TRIPOS>ATOM
      1 O           5.1350   -2.8813    0.0000 O.3     1  UNL1       -0.3221
      2 O           6.8671   -2.8813    0.0000 O.3     1  UNL1       -0.4572
      3 O           5.1350   -5.8813    0.0000 O.3     1  UNL1       -0.3863
      4 O           3.4030   -4.8813    0.0000 O.3     1  UNL1       -0.3860
      5 O           6.8671   -4.8813    0.0000 O.3     1  UNL1       -0.3829
      6 O           2.5369   -3.3813    0.0000 O.3     1  UNL1       -0.4788
      7 O           3.4030   -1.8813    0.0000 O.2     1  UNL1       -0.2480
      8 O           7.7331    1.6187    0.0000 O.2     1  UNL1       -0.4507
      9 O           5.1350   -1.8813    0.0000 O.3     1  UNL1       -0.5033
     10 O           5.1350    1.1187    0.0000 O.3     1  UNL1       -0.4883
     11 O           7.7452    5.6880    0.0000 O.3     1  UNL1       -0.4885
     12 O           5.9793    4.6502    0.0000 O.3     1  UNL1       -0.5027
     13 O           5.1350    3.1187    0.0000 O.2     1  UNL1       -0.2830
     14 O           9.5191    4.6638    0.0000 O.3     1  UNL1       -0.5031
     15 C           5.1350   -4.8813    0.0000 C.3     1  UNL1        0.1157
     16 C           4.2690   -4.3813    0.0000 C.3     1  UNL1        0.1202
     17 C           6.0010   -4.3813    0.0000 C.3     1  UNL1        0.1455
     18 C           4.2690   -3.3813    0.0000 C.3     1  UNL1        0.1869
     19 C           6.0010   -3.3813    0.0000 C.3     1  UNL1        0.2314
     20 C           3.4030   -2.8813    0.0000 C.2     1  UNL1        0.3367
     21 C           6.8671   -1.8813    0.0000 C.ar    1  UNL1        0.1652
     22 C           6.0010   -1.3813    0.0000 C.ar    1  UNL1        0.1592
     23 C           7.7331   -1.3813    0.0000 C.ar    1  UNL1       -0.0155
     24 C           6.8671    0.1187    0.0000 C.ar    1  UNL1        0.0247
     25 C           6.0010   -0.3813    0.0000 C.ar    1  UNL1       -0.0057
     26 C           7.7331   -0.3813    0.0000 C.ar    1  UNL1       -0.0473
     27 C           6.8671    1.1187    0.0000 C.ar    1  UNL1        0.1809
     28 C           6.0010    1.6187    0.0000 C.ar    1  UNL1        0.2107
     29 C           6.8671    3.1187    0.0000 C.ar    1  UNL1        0.1128
     30 C           7.7331    2.6187    0.0000 C.ar    1  UNL1        0.1468
     31 C           6.0010    2.6187    0.0000 C.ar    1  UNL1        0.2382
     32 C           6.8510    4.1602    0.0000 C.ar    1  UNL1        0.1769
     33 C           8.6431    3.1256    0.0000 C.ar    1  UNL1        0.0268
     34 C           7.7490    4.6880    0.0000 C.ar    1  UNL1        0.2040
     35 C           8.6511    4.1672    0.0000 C.ar    1  UNL1        0.1657
     36 C           4.2690    1.6187    0.0000 C.3     1  UNL1        0.0791
     37 C           8.6093    6.1913    0.0000 C.3     1  UNL1        0.0791
     38 H           5.6720   -5.1913    0.0000 H       1  UNL1        0.0648
     39 H           4.2690   -5.0013    0.0000 H       1  UNL1        0.0652
     40 H           6.5380   -4.0713    0.0000 H       1  UNL1        0.0683
     41 H           4.2690   -2.7613    0.0000 H       1  UNL1        0.0742
     42 H           6.0010   -2.7613    0.0000 H       1  UNL1        0.1084
     43 H           5.6720   -6.1913    0.0000 H       1  UNL1        0.2100
     44 H           3.4030   -5.5013    0.0000 H       1  UNL1        0.2100
     45 H           7.4040   -4.5713    0.0000 H       1  UNL1        0.2102
     46 H           8.2700   -1.6913    0.0000 H       1  UNL1        0.0655
     47 H           2.0000   -3.0713    0.0000 H       1  UNL1        0.2951
     48 H           5.4641   -0.0713    0.0000 H       1  UNL1        0.0662
     49 H           8.2700   -0.0713    0.0000 H       1  UNL1        0.0626
     50 H           4.5981   -1.5713    0.0000 H       1  UNL1        0.2923
     51 H           9.1764    2.8094    0.0000 H       1  UNL1        0.0692
     52 H           5.9721    5.2701    0.0000 H       1  UNL1        0.2923
     53 H           4.5790    2.1556    0.0000 H       1  UNL1        0.0660
     54 H           3.7320    1.9287    0.0000 H       1  UNL1        0.0660
     55 H           3.9590    1.0818    0.0000 H       1  UNL1        0.0660
     56 H          10.0548    4.3517    0.0000 H       1  UNL1        0.2923
     57 H           8.9213    5.6556    0.0000 H       1  UNL1        0.0660
     58 H           9.1450    6.5034    0.0000 H       1  UNL1        0.0660
     59 H           8.2972    6.7270    0.0000 H       1  UNL1        0.0660
@<TRIPOS>BOND
     1     1    18    1
     2     1    19    1
     3    19     2    1
     4     2    21    1
     5    15     3    1
     6     3    43    1
     7    16     4    1
     8     4    44    1
     9    17     5    1
    10     5    45    1
    11     6    20    1
    12     6    47    1
    13     7    20    2
    14     8    27   ar
    15     8    30   ar
    16     9    22    1
    17     9    50    1
    18    10    28    1
    19    10    36    1
    20    11    34    1
    21    11    37    1
    22    12    32    1
    23    12    52    1
    24    13    31    2
    25    14    35    1
    26    14    56    1
    27    15    16    1
    28    15    17    1
    29    15    38    1
    30    16    18    1
    31    16    39    1
    32    17    19    1
    33    17    40    1
    34    18    20    1
    35    18    41    1
    36    19    42    1
    37    21    22   ar
    38    21    23   ar
    39    22    25   ar
    40    23    26   ar
    41    23    46    1
    42    24    25   ar
    43    24    26   ar
    44    24    27    1
    45    25    48    1
    46    26    49    1
    47    27    28   ar
    48    28    31   ar
    49    29    30   ar
    50    29    31   ar
    51    29    32   ar
    52    30    33   ar
    53    32    34   ar
    54    33    35   ar
    55    33    51    1
    56    34    35   ar
    57    36    53    1
    58    36    54    1
    59    36    55    1
    60    37    57    1
    61    37    58    1
    62    37    59    1
