@<TRIPOS>MOLECULE
IMPHY004635
 39 41 0 0 0
SMALL
GASTEIGER

@<TRIPOS>ATOM
      1 O           8.0321   -0.7363    0.0000 O.3     1  UNL1       -0.5062
      2 N           4.5274    0.1762    0.0000 N.ar    1  UNL1       -0.3538
      3 C           5.3364   -0.4116    0.0000 C.ar    1  UNL1        0.0545
      4 C           5.0274   -1.3626    0.0000 C.ar    1  UNL1        0.0081
      5 C           6.3518   -0.1793    0.0000 C.ar    1  UNL1        0.0219
      6 C           4.0274   -1.3626    0.0000 C.ar    1  UNL1        0.0074
      7 C           3.7183   -0.4116    0.0000 C.ar    1  UNL1        0.0475
      8 C           5.7123   -2.1474    0.0000 C.ar    1  UNL1       -0.0456
      9 C           7.0547   -0.9480    0.0000 C.ar    1  UNL1        0.1252
     10 C           6.6498    0.7752    0.0000 C.3     1  UNL1       -0.0038
     11 C           6.7328   -1.9387    0.0000 C.ar    1  UNL1       -0.0080
     12 C           3.3424   -2.1474    0.0000 C.ar    1  UNL1       -0.0520
     13 C           2.7029   -0.1793    0.0000 C.ar    1  UNL1       -0.0378
     14 C           7.6255    0.9945    0.0000 C.2     1  UNL1       -0.0808
     15 C           7.3991   -2.6844    0.0000 C.3     1  UNL1       -0.0362
     16 C           2.3219   -1.9387    0.0000 C.ar    1  UNL1       -0.0611
     17 C           2.0000   -0.9480    0.0000 C.ar    1  UNL1       -0.0598
     18 C           7.9235    1.9490    0.0000 C.2     1  UNL1       -0.0793
     19 C           8.8991    2.1682    0.0000 C.3     1  UNL1       -0.0440
     20 C           7.2458    2.6844    0.0000 C.3     1  UNL1       -0.0440
     21 H           4.5274    0.7962    0.0000 H       1  UNL1        0.1659
     22 H           5.5139   -2.7348    0.0000 H       1  UNL1        0.0628
     23 H           6.6210    1.3946    0.0000 H       1  UNL1        0.0357
     24 H           6.0349    0.8544    0.0000 H       1  UNL1        0.0357
     25 H           3.5408   -2.7348    0.0000 H       1  UNL1        0.0624
     26 H           2.5182    0.4125    0.0000 H       1  UNL1        0.0638
     27 H           8.0456    0.5385    0.0000 H       1  UNL1        0.0575
     28 H           6.9368   -3.0975    0.0000 H       1  UNL1        0.0279
     29 H           7.8122   -3.1467    0.0000 H       1  UNL1        0.0279
     30 H           7.8614   -2.2713    0.0000 H       1  UNL1        0.0279
     31 H           1.9088   -2.4010    0.0000 H       1  UNL1        0.0618
     32 H           1.3940   -0.8168    0.0000 H       1  UNL1        0.0618
     33 H           8.4487   -1.1955    0.0000 H       1  UNL1        0.2922
     34 H           9.0350    1.5633    0.0000 H       1  UNL1        0.0274
     35 H           9.5041    2.3041    0.0000 H       1  UNL1        0.0274
     36 H           8.7632    2.7731    0.0000 H       1  UNL1        0.0274
     37 H           7.7017    3.1045    0.0000 H       1  UNL1        0.0274
     38 H           6.8256    3.1403    0.0000 H       1  UNL1        0.0274
     39 H           6.7899    2.2642    0.0000 H       1  UNL1        0.0274
@<TRIPOS>BOND
     1     1     9    1
     2     1    33    1
     3     2     3   ar
     4     2     7   ar
     5     2    21    1
     6     3     4   ar
     7     3     5   ar
     8     4     6   ar
     9     4     8   ar
    10     5     9   ar
    11     5    10    1
    12     6     7   ar
    13     6    12   ar
    14     7    13   ar
    15     8    11   ar
    16     8    22    1
    17     9    11   ar
    18    10    14    1
    19    10    23    1
    20    10    24    1
    21    11    15    1
    22    12    16   ar
    23    12    25    1
    24    13    17   ar
    25    13    26    1
    26    14    18    2
    27    14    27    1
    28    15    28    1
    29    15    29    1
    30    15    30    1
    31    16    17   ar
    32    16    31    1
    33    17    32    1
    34    18    19    1
    35    18    20    1
    36    19    34    1
    37    19    35    1
    38    19    36    1
    39    20    37    1
    40    20    38    1
    41    20    39    1
