@<TRIPOS>MOLECULE
IMPHY001678
 57 62 0 0 0
SMALL
GASTEIGER

@<TRIPOS>ATOM
      1 O           8.6975   -2.4944    0.0000 O.3     1  UNL1       -0.4817
      2 O           5.9174    0.6611    0.0000 O.2     1  UNL1       -0.4534
      3 O           6.8153   -3.9150    0.0000 O.3     1  UNL1       -0.4913
      4 O           5.0572   -0.8426    0.0000 O.3     1  UNL1       -0.5059
      5 O           8.5812    2.1857    0.0000 O.2     1  UNL1       -0.2866
      6 O           3.9787    3.8882    0.0000 O.3     1  UNL1       -0.4814
      7 O           7.6999    3.7984    0.0000 O.3     1  UNL1       -0.5058
      8 C           8.5594   -0.8457    0.0000 C.3     1  UNL1        0.0320
      9 C           9.1774   -1.6241    0.0000 C.3     1  UNL1        0.1124
     10 C           7.6934   -1.3457    0.0000 C.ar    1  UNL1        0.0193
     11 C           8.5594    0.1543    0.0000 C.3     1  UNL1       -0.0099
     12 C           7.7095   -2.3872    0.0000 C.ar    1  UNL1        0.1672
     13 C           6.8274   -0.8457    0.0000 C.ar    1  UNL1        0.0663
     14 C           7.6934    0.6543    0.0000 C.ar    1  UNL1        0.0437
     15 C          10.0326   -2.1423    0.0000 C.3     1  UNL1       -0.0246
     16 C           9.9345   -0.9708    0.0000 C.3     1  UNL1       -0.0246
     17 C           6.8274    0.1543    0.0000 C.ar    1  UNL1        0.1463
     18 C           6.8114   -2.9150    0.0000 C.ar    1  UNL1        0.1653
     19 C           5.9174   -1.3526    0.0000 C.ar    1  UNL1        0.1315
     20 C           7.7095    1.6958    0.0000 C.ar    1  UNL1        0.1998
     21 C           5.9094   -2.3942    0.0000 C.ar    1  UNL1        0.0259
     22 C           6.8114    2.2235    0.0000 C.ar    1  UNL1        0.1063
     23 C           5.9094    1.7027    0.0000 C.ar    1  UNL1        0.1534
     24 C           4.9615    2.2307    0.0000 C.ar    1  UNL1        0.0597
     25 C           6.8282    3.3084    0.0000 C.ar    1  UNL1        0.1347
     26 C           4.9531    3.3156    0.0000 C.ar    1  UNL1        0.1359
     27 C           3.0000    3.3232    0.0000 C.3     1  UNL1        0.1235
     28 C           5.8927    3.8581    0.0000 C.ar    1  UNL1        0.0231
     29 C           3.9960    1.6431    0.0000 C.2     1  UNL1       -0.0478
     30 C           3.0087    2.1930    0.0000 C.2     1  UNL1       -0.0408
     31 C           5.9512   -4.4183    0.0000 C.3     1  UNL1        0.0790
     32 C           2.0000    3.3193    0.0000 C.3     1  UNL1       -0.0215
     33 C           2.4967    4.1872    0.0000 C.3     1  UNL1       -0.0215
     34 H           9.1449   -0.6416    0.0000 H       1  UNL1        0.0392
     35 H           9.1700    0.0466    0.0000 H       1  UNL1        0.0323
     36 H           8.7715    0.7369    0.0000 H       1  UNL1        0.0323
     37 H           9.7113   -2.6726    0.0000 H       1  UNL1        0.0268
     38 H          10.5629   -2.4636    0.0000 H       1  UNL1        0.0268
     39 H          10.3539   -1.6120    0.0000 H       1  UNL1        0.0268
     40 H          10.3395   -1.4403    0.0000 H       1  UNL1        0.0268
     41 H          10.4039   -0.5658    0.0000 H       1  UNL1        0.0268
     42 H           9.5295   -0.5014    0.0000 H       1  UNL1        0.0268
     43 H           5.3712   -2.7021    0.0000 H       1  UNL1        0.0692
     44 H           4.5167   -1.1464    0.0000 H       1  UNL1        0.2922
     45 H           5.8951    4.4781    0.0000 H       1  UNL1        0.0691
     46 H           4.0080    1.0232    0.0000 H       1  UNL1        0.0624
     47 H           2.4754    1.8768    0.0000 H       1  UNL1        0.0611
     48 H           5.6391   -3.8826    0.0000 H       1  UNL1        0.0660
     49 H           5.4155   -4.7304    0.0000 H       1  UNL1        0.0660
     50 H           6.2633   -4.9540    0.0000 H       1  UNL1        0.0660
     51 H           1.9976    3.9393    0.0000 H       1  UNL1        0.0271
     52 H           3.0324    4.4993    0.0000 H       1  UNL1        0.0271
     53 H           2.1846    4.7230    0.0000 H       1  UNL1        0.0271
     54 H           1.9609    3.8752    0.0000 H       1  UNL1        0.0271
     55 H           1.3800    3.3169    0.0000 H       1  UNL1        0.0271
     56 H           2.0024    2.6993    0.0000 H       1  UNL1        0.0271
     57 H           7.7071    4.4183    0.0000 H       1  UNL1        0.2922
@<TRIPOS>BOND
     1     1     9    1
     2     1    12    1
     3     2    17   ar
     4     2    23   ar
     5     3    18    1
     6     3    31    1
     7     4    19    1
     8     4    44    1
     9     5    20    2
    10     6    26    1
    11     6    27    1
    12     7    25    1
    13     7    57    1
    14     8     9    1
    15     8    10    1
    16     8    11    1
    17     8    34    1
    18     9    15    1
    19     9    16    1
    20    10    12   ar
    21    10    13   ar
    22    11    14    1
    23    11    35    1
    24    11    36    1
    25    12    18   ar
    26    13    17    1
    27    13    19   ar
    28    14    17   ar
    29    14    20   ar
    30    15    37    1
    31    15    38    1
    32    15    39    1
    33    16    40    1
    34    16    41    1
    35    16    42    1
    36    18    21   ar
    37    19    21   ar
    38    20    22   ar
    39    21    43    1
    40    22    23   ar
    41    22    25   ar
    42    23    24   ar
    43    24    26   ar
    44    24    29    1
    45    25    28   ar
    46    26    28   ar
    47    27    30    1
    48    27    32    1
    49    27    33    1
    50    28    45    1
    51    29    30    2
    52    29    46    1
    53    30    47    1
    54    31    48    1
    55    31    49    1
    56    31    50    1
    57    32    51    1
    58    32    55    1
    59    32    56    1
    60    33    52    1
    61    33    53    1
    62    33    54    1
