@<TRIPOS>MOLECULE
IMPHY001768
 37 40 0 0 0
SMALL
GASTEIGER

@<TRIPOS>ATOM
      1 O           3.7782    1.3993    0.0000 O.3     1  UNL1       -0.4908
      2 O           5.5442    2.4370    0.0000 O.3     1  UNL1       -0.5033
      3 N           6.3903   -2.1291    0.0000 N.3     1  UNL1       -0.3087
      4 C           5.5321   -1.6322    0.0000 C.3     1  UNL1        0.0378
      5 C           5.5321   -0.6322    0.0000 C.ar    1  UNL1       -0.0155
      6 C           4.6660   -2.1322    0.0000 C.3     1  UNL1       -0.0075
      7 C           6.4421   -0.1254    0.0000 C.ar    1  UNL1       -0.0372
      8 C           4.6660   -0.1322    0.0000 C.ar    1  UNL1        0.0326
      9 C           7.2814   -0.6536    0.0000 C.3     1  UNL1       -0.0146
     10 C           7.2558   -1.6450    0.0000 C.3     1  UNL1        0.0004
     11 C           3.8000   -1.6322    0.0000 C.ar    1  UNL1       -0.0377
     12 C           3.8000   -0.6322    0.0000 C.ar    1  UNL1       -0.0107
     13 C           4.6500    0.9093    0.0000 C.ar    1  UNL1        0.1693
     14 C           6.4501    0.9162    0.0000 C.ar    1  UNL1       -0.0130
     15 C           5.5480    1.4371    0.0000 C.ar    1  UNL1        0.1593
     16 C           2.9061   -2.1669    0.0000 C.ar    1  UNL1       -0.0579
     17 C           2.9061   -0.0975    0.0000 C.ar    1  UNL1       -0.0536
     18 C           2.0000   -1.6530    0.0000 C.ar    1  UNL1       -0.0615
     19 C           2.0000   -0.6114    0.0000 C.ar    1  UNL1       -0.0612
     20 C           3.7667    2.3992    0.0000 C.3     1  UNL1        0.0790
     21 H           5.5315   -2.4822    0.0000 H       1  UNL1        0.0513
     22 H           4.2675   -2.6072    0.0000 H       1  UNL1        0.0332
     23 H           5.0646   -2.6072    0.0000 H       1  UNL1        0.0332
     24 H           7.8885   -0.7795    0.0000 H       1  UNL1        0.0326
     25 H           7.5131   -0.0785    0.0000 H       1  UNL1        0.0326
     26 H           6.3857   -2.7491    0.0000 H       1  UNL1        0.1225
     27 H           7.4575   -2.2312    0.0000 H       1  UNL1        0.0427
     28 H           7.8685   -1.5506    0.0000 H       1  UNL1        0.0427
     29 H           6.9882    1.2242    0.0000 H       1  UNL1        0.0658
     30 H           2.9132   -2.7868    0.0000 H       1  UNL1        0.0620
     31 H           2.9132    0.5224    0.0000 H       1  UNL1        0.0624
     32 H           1.4643   -1.9651    0.0000 H       1  UNL1        0.0618
     33 H           1.4643   -0.2993    0.0000 H       1  UNL1        0.0618
     34 H           6.0799    2.7491    0.0000 H       1  UNL1        0.2923
     35 H           4.3866    2.4064    0.0000 H       1  UNL1        0.0660
     36 H           3.7595    3.0191    0.0000 H       1  UNL1        0.0660
     37 H           3.1467    2.3920    0.0000 H       1  UNL1        0.0660
@<TRIPOS>BOND
     1     1    13    1
     2     1    20    1
     3     2    15    1
     4     2    34    1
     5     3     4    1
     6     3    10    1
     7     3    26    1
     8     4     5    1
     9     4     6    1
    10     4    21    1
    11     5     7   ar
    12     5     8   ar
    13     6    11    1
    14     6    22    1
    15     6    23    1
    16     7     9    1
    17     7    14   ar
    18     8    12    1
    19     8    13   ar
    20     9    10    1
    21     9    24    1
    22     9    25    1
    23    10    27    1
    24    10    28    1
    25    11    12   ar
    26    11    16   ar
    27    12    17   ar
    28    13    15   ar
    29    14    15   ar
    30    14    29    1
    31    16    18   ar
    32    16    30    1
    33    17    19   ar
    34    17    31    1
    35    18    19   ar
    36    18    32    1
    37    19    33    1
    38    20    35    1
    39    20    36    1
    40    20    37    1
