@<TRIPOS>MOLECULE
IMPHY017552
 25 26 0 0 0
SMALL
GASTEIGER

@<TRIPOS>ATOM
      1 O           4.6783   -1.1824    0.0000 O.2     1  UNL1       -0.4549
      2 C           4.6783    0.4271    0.0000 C.ar    1  UNL1        0.0027
      3 C           3.7320    0.1224    0.0000 C.ar    1  UNL1        0.0237
      4 C           5.2619   -0.3776    0.0000 C.ar    1  UNL1        0.1344
      5 C           3.7320   -0.8776    0.0000 C.ar    1  UNL1        0.1359
      6 C           2.8660    0.6224    0.0000 C.ar    1  UNL1       -0.0507
      7 C           4.9889    1.3776    0.0000 C.3     1  UNL1       -0.0355
      8 C           6.2619   -0.3776    0.0000 C.2     1  UNL1       -0.0150
      9 C           2.8660   -1.3776    0.0000 C.ar    1  UNL1       -0.0187
     10 C           2.0000    0.1224    0.0000 C.ar    1  UNL1       -0.0610
     11 C           2.0000   -0.8776    0.0000 C.ar    1  UNL1       -0.0582
     12 C           6.7619   -1.2436    0.0000 C.3     1  UNL1       -0.0368
     13 C           6.7619    0.4884    0.0000 C.2     1  UNL1       -0.0923
     14 H           2.8660    1.2424    0.0000 H       1  UNL1        0.0625
     15 H           5.5783    1.1850    0.0000 H       1  UNL1        0.0279
     16 H           5.1815    1.9670    0.0000 H       1  UNL1        0.0279
     17 H           4.3996    1.5702    0.0000 H       1  UNL1        0.0279
     18 H           2.8660   -1.9976    0.0000 H       1  UNL1        0.0654
     19 H           1.4631    0.4324    0.0000 H       1  UNL1        0.0618
     20 H           1.4631   -1.1876    0.0000 H       1  UNL1        0.0619
     21 H           6.2249   -1.5536    0.0000 H       1  UNL1        0.0278
     22 H           7.0719   -1.7806    0.0000 H       1  UNL1        0.0278
     23 H           7.2988   -0.9337    0.0000 H       1  UNL1        0.0278
     24 H           7.3819    0.4884    0.0000 H       1  UNL1        0.0539
     25 H           6.4519    1.0253    0.0000 H       1  UNL1        0.0539
@<TRIPOS>BOND
     1     1     4   ar
     2     1     5   ar
     3     2     3   ar
     4     2     4   ar
     5     2     7    1
     6     3     5   ar
     7     3     6   ar
     8     4     8    1
     9     5     9   ar
    10     6    10   ar
    11     6    14    1
    12     7    15    1
    13     7    16    1
    14     7    17    1
    15     8    12    1
    16     8    13    2
    17     9    11   ar
    18     9    18    1
    19    10    11   ar
    20    10    19    1
    21    11    20    1
    22    12    21    1
    23    12    22    1
    24    12    23    1
    25    13    24    1
    26    13    25    1
