@<TRIPOS>MOLECULE
IMPHY011156
 47 50 0 0 0
SMALL
GASTEIGER

@<TRIPOS>ATOM
      1 O           4.3723    1.8449    0.0000 O.3     1  UNL1       -0.4606
      2 O           2.8836    2.8140    0.0000 O.2     1  UNL1       -0.2505
      3 N           4.4419   -2.0977    0.0000 N.3     1  UNL1       -0.2988
      4 C           3.7155   -0.6269    0.0000 C.3     1  UNL1       -0.0170
      5 C           4.5816   -1.1269    0.0000 C.3     1  UNL1        0.0168
      6 C           3.7155    0.3731    0.0000 C.3     1  UNL1        0.0133
      7 C           5.4476   -0.6269    0.0000 C.3     1  UNL1       -0.0189
      8 C           5.4476    0.3731    0.0000 C.3     1  UNL1        0.0005
      9 C           4.5816    0.8731    0.0000 C.3     1  UNL1        0.1100
     10 C           3.0229   -1.3324    0.0000 C.3     1  UNL1       -0.0355
     11 C           2.9785    1.0402    0.0000 C.3     1  UNL1        0.0601
     12 C           3.4607   -2.2189    0.0000 C.3     1  UNL1       -0.0005
     13 C           6.3581   -0.9914    0.0000 C.3     1  UNL1       -0.0484
     14 C           5.1119   -2.8140    0.0000 C.3     1  UNL1       -0.0008
     15 C           6.3136    0.8731    0.0000 C.3     1  UNL1       -0.0494
     16 C           6.6434   -1.9298    0.0000 C.3     1  UNL1       -0.0516
     17 C           3.3836    1.9480    0.0000 C.2     1  UNL1        0.3106
     18 C           6.0898   -2.7394    0.0000 C.3     1  UNL1       -0.0402
     19 C           2.0000    0.8340    0.0000 C.3     1  UNL1       -0.0519
     20 C           6.3136    1.8731    0.0000 C.3     1  UNL1       -0.0649
     21 H           2.9287   -0.3053    0.0000 H       1  UNL1        0.0320
     22 H           5.3177   -1.5519    0.0000 H       1  UNL1        0.0468
     23 H           2.9386    0.0284    0.0000 H       1  UNL1        0.0348
     24 H           6.1515   -0.1505    0.0000 H       1  UNL1        0.0320
     25 H           5.4476    0.9931    0.0000 H       1  UNL1        0.0340
     26 H           5.2686    1.3736    0.0000 H       1  UNL1        0.0740
     27 H           2.6318   -0.8513    0.0000 H       1  UNL1        0.0281
     28 H           2.5012   -1.6673    0.0000 H       1  UNL1        0.0281
     29 H           2.5890    1.5225    0.0000 H       1  UNL1        0.0415
     30 H           2.8776   -2.4296    0.0000 H       1  UNL1        0.0427
     31 H           3.6049   -2.8218    0.0000 H       1  UNL1        0.0427
     32 H           6.9766   -0.9481    0.0000 H       1  UNL1        0.0269
     33 H           6.4541   -0.3788    0.0000 H       1  UNL1        0.0269
     34 H           4.5759   -3.1257    0.0000 H       1  UNL1        0.0427
     35 H           5.2960   -3.4060    0.0000 H       1  UNL1        0.0427
     36 H           6.5256    0.2905    0.0000 H       1  UNL1        0.0267
     37 H           6.9242    0.9808    0.0000 H       1  UNL1        0.0267
     38 H           7.0641   -2.3852    0.0000 H       1  UNL1        0.0266
     39 H           7.1814   -1.6214    0.0000 H       1  UNL1        0.0266
     40 H           5.9977   -3.3525    0.0000 H       1  UNL1        0.0278
     41 H           6.6669   -2.9661    0.0000 H       1  UNL1        0.0278
     42 H           1.8721    1.4406    0.0000 H       1  UNL1        0.0238
     43 H           1.3933    0.7061    0.0000 H       1  UNL1        0.0238
     44 H           2.1279    0.2273    0.0000 H       1  UNL1        0.0238
     45 H           6.9336    1.8731    0.0000 H       1  UNL1        0.0230
     46 H           6.3136    2.4931    0.0000 H       1  UNL1        0.0230
     47 H           5.6936    1.8731    0.0000 H       1  UNL1        0.0230
@<TRIPOS>BOND
     1     1     9    1
     2     1    17    1
     3     2    17    2
     4     3     5    1
     5     3    12    1
     6     3    14    1
     7     4     5    1
     8     4     6    1
     9     4    10    1
    10     4    21    1
    11     5     7    1
    12     5    22    1
    13     6     9    1
    14     6    11    1
    15     6    23    1
    16     7     8    1
    17     7    13    1
    18     7    24    1
    19     8     9    1
    20     8    15    1
    21     8    25    1
    22     9    26    1
    23    10    12    1
    24    10    27    1
    25    10    28    1
    26    11    17    1
    27    11    19    1
    28    11    29    1
    29    12    30    1
    30    12    31    1
    31    13    16    1
    32    13    32    1
    33    13    33    1
    34    14    18    1
    35    14    34    1
    36    14    35    1
    37    15    20    1
    38    15    36    1
    39    15    37    1
    40    16    18    1
    41    16    38    1
    42    16    39    1
    43    18    40    1
    44    18    41    1
    45    19    42    1
    46    19    43    1
    47    19    44    1
    48    20    45    1
    49    20    46    1
    50    20    47    1
