@<TRIPOS>MOLECULE
IMPHY006243
 32 32 0 0 0
SMALL
GASTEIGER

@<TRIPOS>ATOM
      1 O           2.8660    0.7500    0.0000 O.3     1  UNL1       -0.4948
      2 O           6.3301   -1.2500    0.0000 O.3     1  UNL1       -0.4948
      3 C           4.5981    1.7500    0.0000 C.3     1  UNL1       -0.0179
      4 C           4.5981    0.7500    0.0000 C.ar    1  UNL1        0.0003
      5 C           3.7320    0.2500    0.0000 C.ar    1  UNL1        0.1240
      6 C           5.4641    0.2500    0.0000 C.ar    1  UNL1       -0.0128
      7 C           5.4641    2.2500    0.0000 C.3     1  UNL1       -0.0585
      8 C           3.7320    2.2500    0.0000 C.3     1  UNL1       -0.0585
      9 C           4.5981   -1.2500    0.0000 C.ar    1  UNL1       -0.0053
     10 C           5.4641   -0.7500    0.0000 C.ar    1  UNL1        0.1235
     11 C           3.7320   -0.7500    0.0000 C.ar    1  UNL1       -0.0133
     12 C           4.5981   -2.2500    0.0000 C.3     1  UNL1       -0.0361
     13 C           2.0000    0.2500    0.0000 C.3     1  UNL1        0.0788
     14 C           7.1962   -0.7500    0.0000 C.3     1  UNL1        0.0788
     15 H           4.5981    2.3700    0.0000 H       1  UNL1        0.0345
     16 H           6.0010    0.5600    0.0000 H       1  UNL1        0.0658
     17 H           5.7741    1.7131    0.0000 H       1  UNL1        0.0235
     18 H           6.0010    2.5600    0.0000 H       1  UNL1        0.0235
     19 H           5.1541    2.7869    0.0000 H       1  UNL1        0.0235
     20 H           4.0420    2.7869    0.0000 H       1  UNL1        0.0235
     21 H           3.1951    2.5600    0.0000 H       1  UNL1        0.0235
     22 H           3.4220    1.7131    0.0000 H       1  UNL1        0.0235
     23 H           3.1951   -1.0600    0.0000 H       1  UNL1        0.0658
     24 H           3.9781   -2.2500    0.0000 H       1  UNL1        0.0279
     25 H           4.5981   -2.8700    0.0000 H       1  UNL1        0.0279
     26 H           5.2181   -2.2500    0.0000 H       1  UNL1        0.0279
     27 H           1.6900    0.7869    0.0000 H       1  UNL1        0.0660
     28 H           1.4631   -0.0600    0.0000 H       1  UNL1        0.0660
     29 H           2.3100   -0.2869    0.0000 H       1  UNL1        0.0660
     30 H           7.5062   -1.2869    0.0000 H       1  UNL1        0.0660
     31 H           7.7331   -0.4400    0.0000 H       1  UNL1        0.0660
     32 H           6.8862   -0.2131    0.0000 H       1  UNL1        0.0660
@<TRIPOS>BOND
     1     1     5    1
     2     1    13    1
     3     2    10    1
     4     2    14    1
     5     3     4    1
     6     3     7    1
     7     3     8    1
     8     3    15    1
     9     4     5   ar
    10     4     6   ar
    11     5    11   ar
    12     6    10   ar
    13     6    16    1
    14     7    17    1
    15     7    18    1
    16     7    19    1
    17     8    20    1
    18     8    21    1
    19     8    22    1
    20     9    10   ar
    21     9    11   ar
    22     9    12    1
    23    11    23    1
    24    12    24    1
    25    12    25    1
    26    12    26    1
    27    13    27    1
    28    13    28    1
    29    13    29    1
    30    14    30    1
    31    14    31    1
    32    14    32    1
