@<TRIPOS>MOLECULE
IMPHY017438
 26 25 0 0 0
SMALL
GASTEIGER

@<TRIPOS>ATOM
      1 O           3.7320    0.7500    0.0000 O.3     1  UNL1       -0.4613
      2 O           7.1962    0.7500    0.0000 O.3     1  UNL1       -0.4648
      3 O           6.3301   -0.7500    0.0000 O.2     1  UNL1       -0.2507
      4 O           2.8660   -0.7500    0.0000 O.2     1  UNL1       -0.2512
      5 C           4.5981    0.2500    0.0000 C.3     1  UNL1        0.1103
      6 C           5.4641    0.7500    0.0000 C.3     1  UNL1        0.0817
      7 C           4.5981   -0.7500    0.0000 C.3     1  UNL1       -0.0272
      8 C           6.3301    0.2500    0.0000 C.2     1  UNL1        0.3106
      9 C           8.0622    0.2500    0.0000 C.3     1  UNL1        0.0896
     10 C           2.8660    0.2500    0.0000 C.2     1  UNL1        0.3042
     11 C           8.9282    0.7500    0.0000 C.3     1  UNL1       -0.0306
     12 C           2.0000    0.7500    0.0000 C.3     1  UNL1        0.0332
     13 H           4.5981    0.8700    0.0000 H       1  UNL1        0.0736
     14 H           5.8626    1.2250    0.0000 H       1  UNL1        0.0414
     15 H           5.0656    1.2250    0.0000 H       1  UNL1        0.0414
     16 H           3.9781   -0.7500    0.0000 H       1  UNL1        0.0265
     17 H           4.5981   -1.3700    0.0000 H       1  UNL1        0.0265
     18 H           5.2181   -0.7500    0.0000 H       1  UNL1        0.0265
     19 H           7.6636   -0.2249    0.0000 H       1  UNL1        0.0694
     20 H           8.4607   -0.2249    0.0000 H       1  UNL1        0.0694
     21 H           9.2382    0.2131    0.0000 H       1  UNL1        0.0262
     22 H           9.4651    1.0600    0.0000 H       1  UNL1        0.0262
     23 H           8.6182    1.2869    0.0000 H       1  UNL1        0.0262
     24 H           2.3100    1.2869    0.0000 H       1  UNL1        0.0342
     25 H           1.4631    1.0600    0.0000 H       1  UNL1        0.0342
     26 H           1.6900    0.2131    0.0000 H       1  UNL1        0.0342
@<TRIPOS>BOND
     1     1     5    1
     2     1    10    1
     3     2     8    1
     4     2     9    1
     5     3     8    2
     6     4    10    2
     7     5     6    1
     8     5     7    1
     9     5    13    1
    10     6     8    1
    11     6    14    1
    12     6    15    1
    13     7    16    1
    14     7    17    1
    15     7    18    1
    16     9    11    1
    17     9    19    1
    18     9    20    1
    19    10    12    1
    20    11    21    1
    21    11    22    1
    22    11    23    1
    23    12    24    1
    24    12    25    1
    25    12    26    1
