@<TRIPOS>MOLECULE
IMPHY002428
 92 98 0 0 0
SMALL
GASTEIGER

@<TRIPOS>ATOM
      1 O           5.8612   -1.6218    0.0000 O.3     1  UNL1       -0.3851
      2 O           7.3788   -2.7907    0.0000 O.3     1  UNL1       -0.3790
      3 O           9.2015    0.9712    0.0000 O.3     1  UNL1       -0.3791
      4 O           5.4850    0.7197    0.0000 O.3     1  UNL1       -0.4545
      5 O           7.0762    2.2831    0.0000 O.3     1  UNL1       -0.3822
      6 O           5.0722   -1.1805    0.0000 O.3     1  UNL1       -0.3862
      7 O           5.0838    1.4291    0.0000 O.3     1  UNL1       -0.3741
      8 O          10.9523   -1.2990    0.0000 O.3     1  UNL1       -0.3910
      9 O          10.0675   -3.2640    0.0000 O.3     1  UNL1       -0.3823
     10 O           4.2572   -0.5020    0.0000 O.2     1  UNL1       -0.2449
     11 O           1.6971    3.2987    0.0000 O.3     1  UNL1       -0.4951
     12 N          10.3968   -0.8579    0.0000 N.3     1  UNL1       -0.2979
     13 C           8.4501   -0.4626    0.0000 C.3     1  UNL1        0.0222
     14 C           8.4501   -1.3302    0.0000 C.3     1  UNL1        0.0067
     15 C           7.7718    0.0783    0.0000 C.3     1  UNL1       -0.0194
     16 C           9.4521   -0.5687    0.0000 C.3     1  UNL1        0.0269
     17 C           6.9260   -1.6781    0.0000 C.3     1  UNL1        0.0335
     18 C           6.9260   -0.1148    0.0000 C.3     1  UNL1        0.0343
     19 C           6.5496   -0.8964    0.0000 C.3     1  UNL1        0.1074
     20 C           7.7718   -1.8711    0.0000 C.3     1  UNL1        0.0694
     21 C           9.2015   -1.7640    0.0000 C.3     1  UNL1        0.0386
     22 C           9.2015   -0.0288    0.0000 C.3     1  UNL1        0.0683
     23 C           7.8496    0.9424    0.0000 C.3     1  UNL1       -0.0140
     24 C           7.0518    1.2834    0.0000 C.3     1  UNL1        0.1318
     25 C           6.4810    0.6300    0.0000 C.3     1  UNL1        0.1402
     26 C           5.9047   -0.6265    0.0000 C.3     1  UNL1        0.1134
     27 C          10.3968   -1.6098    0.0000 C.3     1  UNL1        0.0097
     28 C           9.9528   -1.3302    0.0000 C.3     1  UNL1        0.0668
     29 C           5.9047    0.8580    0.0000 C.3     1  UNL1        0.1189
     30 C           9.9528   -0.4626    0.0000 C.3     1  UNL1        0.0008
     31 C           9.2015   -2.7640    0.0000 C.3     1  UNL1        0.0568
     32 C          11.2008   -0.2632    0.0000 C.3     1  UNL1       -0.0036
     33 C           7.9786   -3.5908    0.0000 C.3     1  UNL1        0.0368
     34 C          12.1177   -0.6621    0.0000 C.3     1  UNL1       -0.0523
     35 C          10.0675    1.4712    0.0000 C.3     1  UNL1        0.0368
     36 C           4.5185    0.4632    0.0000 C.2     1  UNL1        0.3395
     37 C           5.1680    2.4256    0.0000 C.3     1  UNL1        0.0370
     38 C          10.0675   -4.2640    0.0000 C.3     1  UNL1        0.0365
     39 C           3.8131    1.1721    0.0000 C.ar    1  UNL1        0.0592
     40 C           2.8466    0.9157    0.0000 C.ar    1  UNL1       -0.0443
     41 C           4.0744    2.1374    0.0000 C.ar    1  UNL1       -0.0443
     42 C           2.1412    1.6246    0.0000 C.ar    1  UNL1       -0.0192
     43 C           3.3690    2.8462    0.0000 C.ar    1  UNL1       -0.0192
     44 C           2.4024    2.5898    0.0000 C.ar    1  UNL1        0.1201
     45 C           1.9583    4.2640    0.0000 C.3     1  UNL1        0.0788
     46 H           8.5136   -2.1778    0.0000 H       1  UNL1        0.0340
     47 H           8.5534    0.4124    0.0000 H       1  UNL1        0.0313
     48 H           9.7640    0.2220    0.0000 H       1  UNL1        0.0473
     49 H           6.6553   -2.4838    0.0000 H       1  UNL1        0.0370
     50 H           6.0768   -0.1529    0.0000 H       1  UNL1        0.0369
     51 H           7.9722   -2.4578    0.0000 H       1  UNL1        0.0603
     52 H           8.6645    0.2812    0.0000 H       1  UNL1        0.0603
     53 H           8.0323    1.5348    0.0000 H       1  UNL1        0.0298
     54 H           8.4579    0.8226    0.0000 H       1  UNL1        0.0298
     55 H           6.2502    1.2054    0.0000 H       1  UNL1        0.0768
     56 H           5.3582   -0.3337    0.0000 H       1  UNL1        0.0649
     57 H          11.0162   -1.5832    0.0000 H       1  UNL1        0.0434
     58 H          10.4498   -2.2275    0.0000 H       1  UNL1        0.0434
     59 H          10.1226   -1.9265    0.0000 H       1  UNL1        0.0601
     60 H           5.9828    1.4731    0.0000 H       1  UNL1        0.0653
     61 H          10.1649    0.1200    0.0000 H       1  UNL1        0.0315
     62 H          10.5634   -0.5703    0.0000 H       1  UNL1        0.0315
     63 H           8.9894   -3.3466    0.0000 H       1  UNL1        0.0566
     64 H           8.5909   -2.6563    0.0000 H       1  UNL1        0.0566
     65 H           5.8233   -2.2406    0.0000 H       1  UNL1        0.2103
     66 H          10.7511    0.1637    0.0000 H       1  UNL1        0.0424
     67 H          11.5430    0.2538    0.0000 H       1  UNL1        0.0424
     68 H           6.5470    2.6061    0.0000 H       1  UNL1        0.2104
     69 H           5.1116   -1.7993    0.0000 H       1  UNL1        0.2100
     70 H          11.2789   -1.8260    0.0000 H       1  UNL1        0.2098
     71 H           8.4747   -3.2189    0.0000 H       1  UNL1        0.0524
     72 H           8.3505   -4.0869    0.0000 H       1  UNL1        0.0524
     73 H           7.4825   -3.9627    0.0000 H       1  UNL1        0.0524
     74 H          12.3651   -0.0936    0.0000 H       1  UNL1        0.0242
     75 H          12.6863   -0.9094    0.0000 H       1  UNL1        0.0242
     76 H          11.8704   -1.2306    0.0000 H       1  UNL1        0.0242
     77 H           9.7575    2.0081    0.0000 H       1  UNL1        0.0524
     78 H          10.6044    1.7812    0.0000 H       1  UNL1        0.0524
     79 H          10.3775    0.9342    0.0000 H       1  UNL1        0.0524
     80 H           4.5502    2.4778    0.0000 H       1  UNL1        0.0524
     81 H           5.2201    3.0434    0.0000 H       1  UNL1        0.0524
     82 H           5.7858    2.3734    0.0000 H       1  UNL1        0.0524
     83 H          10.6875   -4.2640    0.0000 H       1  UNL1        0.0523
     84 H          10.0675   -4.8840    0.0000 H       1  UNL1        0.0523
     85 H           9.4475   -4.2640    0.0000 H       1  UNL1        0.0523
     86 H           2.6846    0.3172    0.0000 H       1  UNL1        0.0627
     87 H           4.6736    2.2964    0.0000 H       1  UNL1        0.0627
     88 H           1.5419    1.4656    0.0000 H       1  UNL1        0.0654
     89 H           3.5310    3.4447    0.0000 H       1  UNL1        0.0654
     90 H           1.3598    4.4260    0.0000 H       1  UNL1        0.0660
     91 H           2.1203    4.8625    0.0000 H       1  UNL1        0.0660
     92 H           2.5568    4.1020    0.0000 H       1  UNL1        0.0660
@<TRIPOS>BOND
     1    19     1    1
     2     1    65    1
     3    20     2    1
     4     2    33    1
     5    22     3    1
     6     3    35    1
     7    25     4    1
     8     4    36    1
     9    24     5    1
    10     5    68    1
    11    26     6    1
    12     6    69    1
    13    29     7    1
    14     7    37    1
    15    28     8    1
    16     8    70    1
    17     9    31    1
    18     9    38    1
    19    10    36    2
    20    11    44    1
    21    11    45    1
    22    12    16    1
    23    12    27    1
    24    12    32    1
    25    13    14    1
    26    13    15    1
    27    13    16    1
    28    13    22    1
    29    14    20    1
    30    14    21    1
    31    14    46    1
    32    15    18    1
    33    15    23    1
    34    15    47    1
    35    16    17    1
    36    16    48    1
    37    17    19    1
    38    17    20    1
    39    17    49    1
    40    18    19    1
    41    18    25    1
    42    18    50    1
    43    19    26    1
    44    20    51    1
    45    21    27    1
    46    21    28    1
    47    21    31    1
    48    22    30    1
    49    22    52    1
    50    23    24    1
    51    23    53    1
    52    23    54    1
    53    24    25    1
    54    24    29    1
    55    25    55    1
    56    26    29    1
    57    26    56    1
    58    27    57    1
    59    27    58    1
    60    28    30    1
    61    28    59    1
    62    29    60    1
    63    30    61    1
    64    30    62    1
    65    31    63    1
    66    31    64    1
    67    32    34    1
    68    32    66    1
    69    32    67    1
    70    33    71    1
    71    33    72    1
    72    33    73    1
    73    34    74    1
    74    34    75    1
    75    34    76    1
    76    35    77    1
    77    35    78    1
    78    35    79    1
    79    36    39    1
    80    37    80    1
    81    37    81    1
    82    37    82    1
    83    38    83    1
    84    38    84    1
    85    38    85    1
    86    39    40   ar
    87    39    41   ar
    88    40    42   ar
    89    40    86    1
    90    41    43   ar
    91    41    87    1
    92    42    44   ar
    93    42    88    1
    94    43    44   ar
    95    43    89    1
    96    45    90    1
    97    45    91    1
    98    45    92    1
