@<TRIPOS>MOLECULE
IMPHY000296
 34 37 0 0 0
SMALL
GASTEIGER

@<TRIPOS>ATOM
      1 O           7.8003   -1.2673    0.0000 O.3     1  UNL1       -0.4487
      2 O           6.0682   -3.2673    0.0000 O.2     1  UNL1       -0.4195
      3 O           9.5763    1.7396    0.0000 O.2     1  UNL1       -0.4220
      4 O           2.5381   -3.2914    0.0000 O.3     1  UNL1       -0.5066
      5 O           7.8003   -3.2673    0.0000 O.2     1  UNL1       -0.2410
      6 O          10.4523    3.2778    0.0000 O.2     1  UNL1       -0.2452
      7 C           5.2022   -1.7673    0.0000 C.ar    1  UNL1        0.0213
      8 C           5.2022   -2.7673    0.0000 C.ar    1  UNL1        0.1427
      9 C           7.8003    1.7327    0.0000 C.ar    1  UNL1        0.0178
     10 C           8.6663    1.2327    0.0000 C.ar    1  UNL1        0.1425
     11 C           7.8003   -0.2673    0.0000 C.ar    1  UNL1        0.1323
     12 C           6.9343   -1.7673    0.0000 C.ar    1  UNL1        0.2130
     13 C           6.0682   -1.2673    0.0000 C.ar    1  UNL1       -0.0015
     14 C           8.6663    0.2327    0.0000 C.ar    1  UNL1        0.0237
     15 C           6.9343    1.2327    0.0000 C.ar    1  UNL1       -0.0476
     16 C           6.9343    0.2327    0.0000 C.ar    1  UNL1       -0.0185
     17 C           4.3083   -1.2326    0.0000 C.ar    1  UNL1       -0.0475
     18 C           4.3083   -3.3020    0.0000 C.ar    1  UNL1        0.0229
     19 C           6.9343   -2.7673    0.0000 C.ar    1  UNL1        0.3801
     20 C           7.7842    2.7742    0.0000 C.ar    1  UNL1       -0.0443
     21 C           3.4022   -2.7881    0.0000 C.ar    1  UNL1        0.1204
     22 C           3.4022   -1.7465    0.0000 C.ar    1  UNL1       -0.0194
     23 C           8.6823    3.3020    0.0000 C.ar    1  UNL1        0.0236
     24 C           9.5844    2.7811    0.0000 C.ar    1  UNL1        0.3372
     25 H           6.0682   -0.6473    0.0000 H       1  UNL1        0.0664
     26 H           9.2033   -0.0773    0.0000 H       1  UNL1        0.0691
     27 H           6.3973    1.5427    0.0000 H       1  UNL1        0.0626
     28 H           6.3973   -0.0773    0.0000 H       1  UNL1        0.0654
     29 H           4.3154   -0.6127    0.0000 H       1  UNL1        0.0626
     30 H           4.3154   -3.9219    0.0000 H       1  UNL1        0.0691
     31 H           7.2438    3.0780    0.0000 H       1  UNL1        0.0627
     32 H           2.8665   -1.4344    0.0000 H       1  UNL1        0.0654
     33 H           8.6799    3.9220    0.0000 H       1  UNL1        0.0689
     34 H           2.0000   -2.9835    0.0000 H       1  UNL1        0.2921
@<TRIPOS>BOND
     1     1    11    1
     2     1    12    1
     3     2     8   ar
     4     2    19   ar
     5     3    10   ar
     6     3    24   ar
     7     4    21    1
     8     4    34    1
     9     5    19    2
    10     6    24    2
    11     7     8   ar
    12     7    13   ar
    13     7    17   ar
    14     8    18   ar
    15     9    10   ar
    16     9    15   ar
    17     9    20   ar
    18    10    14   ar
    19    11    14   ar
    20    11    16   ar
    21    12    13   ar
    22    12    19   ar
    23    13    25    1
    24    14    26    1
    25    15    16   ar
    26    15    27    1
    27    16    28    1
    28    17    22   ar
    29    17    29    1
    30    18    21   ar
    31    18    30    1
    32    20    23   ar
    33    20    31    1
    34    21    22   ar
    35    22    32    1
    36    23    24   ar
    37    23    33    1
