@<TRIPOS>MOLECULE
IMPHY005437
 54 57 0 0 0
SMALL
GASTEIGER

@<TRIPOS>ATOM
      1 O           5.1350   -0.5406    0.0000 O.3     1  UNL1       -0.3313
      2 O           6.8671   -0.5406    0.0000 O.3     1  UNL1       -0.4534
      3 O           5.1350   -3.5406    0.0000 O.3     1  UNL1       -0.3864
      4 O           3.4030   -2.5406    0.0000 O.3     1  UNL1       -0.3865
      5 O           6.8671   -2.5406    0.0000 O.3     1  UNL1       -0.3829
      6 O           2.5369   -1.0406    0.0000 O.3     1  UNL1       -0.3924
      7 O           8.6273    0.4737    0.0000 O.2     1  UNL1       -0.4470
      8 O           5.0971    0.4904    0.0000 O.3     1  UNL1       -0.5031
      9 O           6.9141    3.5283    0.0000 O.3     1  UNL1       -0.5058
     10 O          10.3824    2.4535    0.0000 O.3     1  UNL1       -0.5007
     11 O           8.6620    3.4735    0.0000 O.2     1  UNL1       -0.2830
     12 O          11.1963   -2.0562    0.0000 O.3     1  UNL1       -0.5033
     13 O          12.9398   -1.0763    0.0000 O.3     1  UNL1       -0.5033
     14 C           5.1350   -2.5406    0.0000 C.3     1  UNL1        0.1152
     15 C           4.2690   -2.0406    0.0000 C.3     1  UNL1        0.1120
     16 C           6.0010   -2.0406    0.0000 C.3     1  UNL1        0.1454
     17 C           4.2690   -1.0406    0.0000 C.3     1  UNL1        0.1140
     18 C           6.0010   -1.0406    0.0000 C.3     1  UNL1        0.2311
     19 C           3.4030   -0.5406    0.0000 C.3     1  UNL1        0.0731
     20 C           6.8671    0.4594    0.0000 C.ar    1  UNL1        0.2080
     21 C           7.7671    0.9837    0.0000 C.ar    1  UNL1        0.1882
     22 C           5.9670    0.9837    0.0000 C.ar    1  UNL1        0.1658
     23 C           7.7787    1.9836    0.0000 C.ar    1  UNL1        0.1128
     24 C           6.8910    2.5286    0.0000 C.ar    1  UNL1        0.1350
     25 C           5.9790    2.0252    0.0000 C.ar    1  UNL1        0.0259
     26 C           8.6504    2.4736    0.0000 C.ar    1  UNL1        0.2380
     27 C           9.4991    0.9636    0.0000 C.ar    1  UNL1        0.1809
     28 C           9.5106    1.9636    0.0000 C.ar    1  UNL1        0.2082
     29 C          10.3592    0.4537    0.0000 C.ar    1  UNL1        0.0247
     30 C          10.3477   -0.5463    0.0000 C.ar    1  UNL1       -0.0057
     31 C          11.2310    0.9436    0.0000 C.ar    1  UNL1       -0.0473
     32 C          11.2079   -1.0563    0.0000 C.ar    1  UNL1        0.1589
     33 C          12.0912    0.4336    0.0000 C.ar    1  UNL1       -0.0159
     34 C          12.0796   -0.5663    0.0000 C.ar    1  UNL1        0.1583
     35 H           5.6720   -2.8506    0.0000 H       1  UNL1        0.0648
     36 H           4.2690   -2.6606    0.0000 H       1  UNL1        0.0647
     37 H           6.5380   -1.7306    0.0000 H       1  UNL1        0.0683
     38 H           4.2690   -0.4206    0.0000 H       1  UNL1        0.0647
     39 H           6.0010   -0.4206    0.0000 H       1  UNL1        0.1084
     40 H           3.8015   -0.0657    0.0000 H       1  UNL1        0.0584
     41 H           3.0044   -0.0657    0.0000 H       1  UNL1        0.0584
     42 H           4.5981   -3.8506    0.0000 H       1  UNL1        0.2100
     43 H           3.4030   -3.1606    0.0000 H       1  UNL1        0.2100
     44 H           6.8671   -3.1606    0.0000 H       1  UNL1        0.2102
     45 H           2.0000   -0.7306    0.0000 H       1  UNL1        0.2095
     46 H           5.4470    2.3435    0.0000 H       1  UNL1        0.0692
     47 H           4.5626    0.8045    0.0000 H       1  UNL1        0.2923
     48 H           9.8072   -0.8500    0.0000 H       1  UNL1        0.0662
     49 H          11.2382    1.5636    0.0000 H       1  UNL1        0.0626
     50 H           6.3845    3.8506    0.0000 H       1  UNL1        0.2922
     51 H          10.3895    3.0735    0.0000 H       1  UNL1        0.2924
     52 H          12.6317    0.7374    0.0000 H       1  UNL1        0.0655
     53 H          11.7296   -2.3724    0.0000 H       1  UNL1        0.2923
     54 H          13.4803   -0.7725    0.0000 H       1  UNL1        0.2923
@<TRIPOS>BOND
     1     1    17    1
     2     1    18    1
     3    18     2    1
     4     2    20    1
     5    14     3    1
     6     3    42    1
     7    15     4    1
     8     4    43    1
     9    16     5    1
    10     5    44    1
    11     6    19    1
    12     6    45    1
    13     7    21   ar
    14     7    27   ar
    15     8    22    1
    16     8    47    1
    17     9    24    1
    18     9    50    1
    19    10    28    1
    20    10    51    1
    21    11    26    2
    22    12    32    1
    23    12    53    1
    24    13    34    1
    25    13    54    1
    26    14    15    1
    27    14    16    1
    28    14    35    1
    29    15    17    1
    30    15    36    1
    31    16    18    1
    32    16    37    1
    33    17    19    1
    34    17    38    1
    35    18    39    1
    36    19    40    1
    37    19    41    1
    38    20    21   ar
    39    20    22   ar
    40    21    23   ar
    41    22    25   ar
    42    23    24   ar
    43    23    26   ar
    44    24    25   ar
    45    25    46    1
    46    26    28   ar
    47    27    28   ar
    48    27    29    1
    49    29    30   ar
    50    29    31   ar
    51    30    32   ar
    52    30    48    1
    53    31    33   ar
    54    31    49    1
    55    32    34   ar
    56    33    34   ar
    57    33    52    1
