@<TRIPOS>MOLECULE
IMPHY013272
 69 72 0 0 0
SMALL
GASTEIGER

@<TRIPOS>ATOM
      1 O           2.5357   -3.2876    0.0000 O.3     1  UNL1       -0.3915
      2 C           7.9288   -0.2353    0.0000 C.3     1  UNL1       -0.0256
      3 C           7.9288   -1.2353    0.0000 C.3     1  UNL1       -0.0320
      4 C           7.0628   -1.7353    0.0000 C.3     1  UNL1       -0.0307
      5 C           6.1968   -1.2353    0.0000 C.3     1  UNL1       -0.0285
      6 C           8.8750    0.0695    0.0000 C.3     1  UNL1       -0.0294
      7 C           7.0628    0.2647    0.0000 C.3     1  UNL1       -0.0468
      8 C           5.2868   -1.7421    0.0000 C.3     1  UNL1       -0.0078
      9 C           8.8750   -1.5400    0.0000 C.3     1  UNL1       -0.0492
     10 C           6.1968   -0.2353    0.0000 C.3     1  UNL1       -0.0486
     11 C           9.4586   -0.7353    0.0000 C.3     1  UNL1       -0.0489
     12 C           7.0789   -2.7768    0.0000 C.3     1  UNL1       -0.0311
     13 C           7.9288    0.7647    0.0000 C.3     1  UNL1       -0.0590
     14 C           5.2787   -2.7837    0.0000 C.2     1  UNL1       -0.0648
     15 C           9.1857    1.0200    0.0000 C.3     1  UNL1       -0.0224
     16 C           4.3599   -1.1780    0.0000 C.3     1  UNL1       -0.0413
     17 C           6.1808   -3.3045    0.0000 C.2     1  UNL1       -0.0839
     18 C           5.2945   -0.7422    0.0000 C.3     1  UNL1       -0.0556
     19 C           4.3433   -3.3334    0.0000 C.3     1  UNL1       -0.0051
     20 C           3.4120   -1.7060    0.0000 C.3     1  UNL1       -0.0258
     21 C           3.4037   -2.7910    0.0000 C.3     1  UNL1        0.0590
     22 C           8.5179    1.7643    0.0000 C.3     1  UNL1       -0.0587
     23 C          10.1642    1.2262    0.0000 C.2     1  UNL1       -0.0846
     24 C          10.4749    2.1767    0.0000 C.2     1  UNL1       -0.0851
     25 C          11.4534    2.3829    0.0000 C.3     1  UNL1       -0.0286
     26 C          11.7640    3.3334    0.0000 C.3     1  UNL1       -0.0592
     27 C          12.1212    1.6386    0.0000 C.3     1  UNL1       -0.0592
     28 H           8.0188   -2.0805    0.0000 H       1  UNL1        0.0309
     29 H           7.8022   -2.1546    0.0000 H       1  UNL1        0.0309
     30 H           6.9329   -0.8103    0.0000 H       1  UNL1        0.0312
     31 H           9.7148    0.2013    0.0000 H       1  UNL1        0.0312
     32 H           7.4613    0.7397    0.0000 H       1  UNL1        0.0271
     33 H           6.6643    0.7397    0.0000 H       1  UNL1        0.0271
     34 H           8.6240   -2.1069    0.0000 H       1  UNL1        0.0268
     35 H           9.4124   -1.8492    0.0000 H       1  UNL1        0.0268
     36 H           5.9847    0.3473    0.0000 H       1  UNL1        0.0268
     37 H           5.5862   -0.3429    0.0000 H       1  UNL1        0.0268
     38 H           9.9195   -1.1500    0.0000 H       1  UNL1        0.0268
     39 H           9.9195   -0.3206    0.0000 H       1  UNL1        0.0268
     40 H           7.2969   -3.3572    0.0000 H       1  UNL1        0.0310
     41 H           7.6880   -2.6613    0.0000 H       1  UNL1        0.0310
     42 H           8.5488    0.7647    0.0000 H       1  UNL1        0.0235
     43 H           7.9288    1.3847    0.0000 H       1  UNL1        0.0235
     44 H           7.3088    0.7647    0.0000 H       1  UNL1        0.0235
     45 H           9.3783    1.6093    0.0000 H       1  UNL1        0.0343
     46 H           4.7681   -0.7114    0.0000 H       1  UNL1        0.0274
     47 H           3.9700   -0.6960    0.0000 H       1  UNL1        0.0274
     48 H           6.1832   -3.9245    0.0000 H       1  UNL1        0.0572
     49 H           5.9145   -0.7469    0.0000 H       1  UNL1        0.0238
     50 H           5.2993   -0.1222    0.0000 H       1  UNL1        0.0238
     51 H           4.6745   -0.7374    0.0000 H       1  UNL1        0.0238
     52 H           3.9460   -3.8094    0.0000 H       1  UNL1        0.0335
     53 H           4.7443   -3.8063    0.0000 H       1  UNL1        0.0335
     54 H           3.2075   -1.1207    0.0000 H       1  UNL1        0.0290
     55 H           2.8004   -1.8074    0.0000 H       1  UNL1        0.0290
     56 H           2.8686   -2.4778    0.0000 H       1  UNL1        0.0596
     57 H           8.9793    2.1783    0.0000 H       1  UNL1        0.0235
     58 H           8.1038    2.2257    0.0000 H       1  UNL1        0.0235
     59 H           8.0564    1.3502    0.0000 H       1  UNL1        0.0235
     60 H          10.5783    0.7647    0.0000 H       1  UNL1        0.0572
     61 H           2.0000   -2.9755    0.0000 H       1  UNL1        0.2098
     62 H          10.0608    2.6382    0.0000 H       1  UNL1        0.0572
     63 H          12.0601    2.5108    0.0000 H       1  UNL1        0.0338
     64 H          12.3534    3.1408    0.0000 H       1  UNL1        0.0235
     65 H          11.9567    3.9228    0.0000 H       1  UNL1        0.0235
     66 H          11.1747    3.5261    0.0000 H       1  UNL1        0.0235
     67 H          11.6598    1.2246    0.0000 H       1  UNL1        0.0235
     68 H          12.5353    1.1772    0.0000 H       1  UNL1        0.0235
     69 H          12.5827    2.0527    0.0000 H       1  UNL1        0.0235
@<TRIPOS>BOND
     1    21     1    1
     2     1    61    1
     3     2     3    1
     4     2     6    1
     5     2     7    1
     6     2    13    1
     7     3     4    1
     8     3     9    1
     9     3    28    1
    10     4     5    1
    11     4    12    1
    12     4    29    1
    13     5     8    1
    14     5    10    1
    15     5    30    1
    16     6    11    1
    17     6    15    1
    18     6    31    1
    19     7    10    1
    20     7    32    1
    21     7    33    1
    22     8    14    1
    23     8    16    1
    24     8    18    1
    25     9    11    1
    26     9    34    1
    27     9    35    1
    28    10    36    1
    29    10    37    1
    30    11    38    1
    31    11    39    1
    32    12    17    1
    33    12    40    1
    34    12    41    1
    35    13    42    1
    36    13    43    1
    37    13    44    1
    38    14    17    2
    39    14    19    1
    40    15    22    1
    41    15    23    1
    42    15    45    1
    43    16    20    1
    44    16    46    1
    45    16    47    1
    46    17    48    1
    47    18    49    1
    48    18    50    1
    49    18    51    1
    50    19    21    1
    51    19    52    1
    52    19    53    1
    53    20    21    1
    54    20    54    1
    55    20    55    1
    56    21    56    1
    57    22    57    1
    58    22    58    1
    59    22    59    1
    60    23    24    2
    61    23    60    1
    62    24    25    1
    63    24    62    1
    64    25    26    1
    65    25    27    1
    66    25    63    1
    67    26    64    1
    68    26    65    1
    69    26    66    1
    70    27    67    1
    71    27    68    1
    72    27    69    1
