@<TRIPOS>MOLECULE
IMPHY013924
 67 68 0 0 0
SMALL
GASTEIGER

@<TRIPOS>ATOM
      1 O           7.7331   -0.5000    0.0000 O.3     1  UNL1       -0.3405
      2 O           6.0010    0.5000    0.0000 O.3     1  UNL1       -0.3461
      3 O           9.4651   -0.5000    0.0000 O.3     1  UNL1       -0.3481
      4 O           6.0010   -2.5000    0.0000 O.3     1  UNL1       -0.3865
      5 O           7.7331   -3.5000    0.0000 O.3     1  UNL1       -0.3864
      6 O           4.2690    0.5000    0.0000 O.3     1  UNL1       -0.3461
      7 O           9.4651   -2.5000    0.0000 O.3     1  UNL1       -0.3841
      8 O           6.0010    2.5000    0.0000 O.3     1  UNL1       -0.3841
      9 O           4.2690    3.5000    0.0000 O.3     1  UNL1       -0.3864
     10 O           2.5369    2.5000    0.0000 O.3     1  UNL1       -0.3869
     11 C           6.8671   -1.0000    0.0000 C.3     1  UNL1        0.1134
     12 C           6.8671   -2.0000    0.0000 C.3     1  UNL1        0.1119
     13 C           7.7331   -2.5000    0.0000 C.3     1  UNL1        0.1141
     14 C           8.5991   -2.0000    0.0000 C.3     1  UNL1        0.1341
     15 C           8.5991   -1.0000    0.0000 C.3     1  UNL1        0.1879
     16 C           6.0010   -0.5000    0.0000 C.3     1  UNL1        0.0796
     17 C           5.1350    1.0000    0.0000 C.3     1  UNL1        0.1876
     18 C           5.1350    2.0000    0.0000 C.3     1  UNL1        0.1341
     19 C           4.2690    2.5000    0.0000 C.3     1  UNL1        0.1137
     20 C           3.4030    2.0000    0.0000 C.3     1  UNL1        0.1069
     21 C           3.4030    1.0000    0.0000 C.3     1  UNL1        0.0792
     22 C           9.4651    0.5000    0.0000 C.3     1  UNL1        0.0575
     23 C          10.3312    1.0000    0.0000 C.3     1  UNL1        0.0065
     24 C          11.1972    0.5000    0.0000 C.3     1  UNL1       -0.0259
     25 C          10.3312    2.0000    0.0000 C.2     1  UNL1       -0.0742
     26 C          12.0632    1.0000    0.0000 C.2     1  UNL1       -0.0847
     27 C          11.1972    2.5000    0.0000 C.3     1  UNL1       -0.0437
     28 C           9.4651    2.5000    0.0000 C.2     1  UNL1       -0.0994
     29 C          12.9292    0.5000    0.0000 C.2     1  UNL1       -0.0796
     30 C          13.7953    1.0000    0.0000 C.3     1  UNL1       -0.0440
     31 C          12.9292   -0.5000    0.0000 C.3     1  UNL1       -0.0440
     32 H           6.8671   -0.3800    0.0000 H       1  UNL1        0.0647
     33 H           6.8671   -2.6200    0.0000 H       1  UNL1        0.0647
     34 H           7.1962   -2.8100    0.0000 H       1  UNL1        0.0648
     35 H           8.5991   -2.6200    0.0000 H       1  UNL1        0.0671
     36 H           8.5991   -0.3800    0.0000 H       1  UNL1        0.0937
     37 H           5.3905   -0.3923    0.0000 H       1  UNL1        0.0587
     38 H           5.7890   -1.0826    0.0000 H       1  UNL1        0.0587
     39 H           5.6720    1.3100    0.0000 H       1  UNL1        0.0937
     40 H           5.1350    2.6200    0.0000 H       1  UNL1        0.0671
     41 H           3.7320    2.8100    0.0000 H       1  UNL1        0.0647
     42 H           3.4030    2.6200    0.0000 H       1  UNL1        0.0643
     43 H           2.7924    1.1077    0.0000 H       1  UNL1        0.0587
     44 H           3.1909    0.4174    0.0000 H       1  UNL1        0.0587
     45 H           9.2531    1.0826    0.0000 H       1  UNL1        0.0567
     46 H           8.8546    0.3923    0.0000 H       1  UNL1        0.0567
     47 H           5.4641   -2.1900    0.0000 H       1  UNL1        0.2100
     48 H           7.1962   -3.8100    0.0000 H       1  UNL1        0.2100
     49 H          10.3312    0.3800    0.0000 H       1  UNL1        0.0371
     50 H          10.0021   -2.1900    0.0000 H       1  UNL1        0.2101
     51 H          10.7987    0.0251    0.0000 H       1  UNL1        0.0314
     52 H          11.5957    0.0251    0.0000 H       1  UNL1        0.0314
     53 H           6.0010    3.1200    0.0000 H       1  UNL1        0.2101
     54 H           3.7320    3.8100    0.0000 H       1  UNL1        0.2100
     55 H           2.0000    2.1900    0.0000 H       1  UNL1        0.2100
     56 H          12.0632    1.6200    0.0000 H       1  UNL1        0.0572
     57 H          11.5072    1.9631    0.0000 H       1  UNL1        0.0274
     58 H          11.7341    2.8100    0.0000 H       1  UNL1        0.0274
     59 H          10.8872    3.0369    0.0000 H       1  UNL1        0.0274
     60 H           9.4651    3.1200    0.0000 H       1  UNL1        0.0534
     61 H           8.9282    2.1900    0.0000 H       1  UNL1        0.0534
     62 H          14.1053    0.4631    0.0000 H       1  UNL1        0.0274
     63 H          14.3322    1.3100    0.0000 H       1  UNL1        0.0274
     64 H          13.4853    1.5369    0.0000 H       1  UNL1        0.0274
     65 H          12.3092   -0.5000    0.0000 H       1  UNL1        0.0274
     66 H          12.9292   -1.1200    0.0000 H       1  UNL1        0.0274
     67 H          13.5492   -0.5000    0.0000 H       1  UNL1        0.0274
@<TRIPOS>BOND
     1     1    11    1
     2     1    15    1
     3     2    16    1
     4    17     2    1
     5    15     3    1
     6     3    22    1
     7    12     4    1
     8     4    47    1
     9    13     5    1
    10     5    48    1
    11     6    17    1
    12     6    21    1
    13    14     7    1
    14     7    50    1
    15    18     8    1
    16     8    53    1
    17    19     9    1
    18     9    54    1
    19    20    10    1
    20    10    55    1
    21    11    12    1
    22    11    16    1
    23    11    32    1
    24    12    13    1
    25    12    33    1
    26    13    14    1
    27    13    34    1
    28    14    15    1
    29    14    35    1
    30    15    36    1
    31    16    37    1
    32    16    38    1
    33    17    18    1
    34    17    39    1
    35    18    19    1
    36    18    40    1
    37    19    20    1
    38    19    41    1
    39    20    21    1
    40    20    42    1
    41    21    43    1
    42    21    44    1
    43    22    23    1
    44    22    45    1
    45    22    46    1
    46    23    24    1
    47    23    25    1
    48    23    49    1
    49    24    26    1
    50    24    51    1
    51    24    52    1
    52    25    27    1
    53    25    28    2
    54    26    29    2
    55    26    56    1
    56    27    57    1
    57    27    58    1
    58    27    59    1
    59    28    60    1
    60    28    61    1
    61    29    30    1
    62    29    31    1
    63    30    62    1
    64    30    63    1
    65    30    64    1
    66    31    65    1
    67    31    66    1
    68    31    67    1
