@<TRIPOS>MOLECULE
IMPHY001745
 49 50 0 0 0
SMALL
GASTEIGER

@<TRIPOS>ATOM
      1 O           6.0010    0.4827    0.0000 O.3     1  UNL1       -0.4889
      2 O           2.5369    1.4827    0.0000 O.3     1  UNL1       -0.3865
      3 O           4.2690   -0.5173    0.0000 O.3     1  UNL1       -0.3856
      4 O           9.4931    0.4480    0.0000 O.2     1  UNL1       -0.4217
      5 O           6.0010   -0.5173    0.0000 O.2     1  UNL1       -0.2968
      6 O          11.2632    0.4585    0.0000 O.2     1  UNL1       -0.2452
      7 C           3.4030    0.9827    0.0000 C.3     1  UNL1        0.0894
      8 C           4.2690    0.4827    0.0000 C.3     1  UNL1        0.1171
      9 C           5.1350    0.9827    0.0000 C.3     1  UNL1        0.1181
     10 C           2.9030    0.1166    0.0000 C.3     1  UNL1       -0.0338
     11 C           3.9030    1.8487    0.0000 C.3     1  UNL1       -0.0338
     12 C           7.7331    0.4827    0.0000 C.ar    1  UNL1        0.0442
     13 C           7.7331   -0.5173    0.0000 C.3     1  UNL1        0.0382
     14 C           6.8671    0.9827    0.0000 C.ar    1  UNL1        0.1277
     15 C           8.5991    0.9827    0.0000 C.ar    1  UNL1        0.1461
     16 C           6.8671   -2.0173    0.0000 C.3     1  UNL1        0.0122
     17 C           6.8671   -1.0173    0.0000 C.2     1  UNL1        0.1404
     18 C           8.5991    1.9827    0.0000 C.ar    1  UNL1        0.0181
     19 C           6.8671    1.9827    0.0000 C.ar    1  UNL1       -0.0189
     20 C           7.7331    2.4827    0.0000 C.ar    1  UNL1       -0.0476
     21 C           6.0010   -2.5173    0.0000 C.3     1  UNL1       -0.0559
     22 C           7.7331   -2.5173    0.0000 C.3     1  UNL1       -0.0559
     23 C           9.4931    2.5173    0.0000 C.ar    1  UNL1       -0.0443
     24 C          10.3991    2.0035    0.0000 C.ar    1  UNL1        0.0236
     25 C          10.3991    0.9619    0.0000 C.ar    1  UNL1        0.3372
     26 H           5.0051    0.0577    0.0000 H       1  UNL1        0.0656
     27 H           5.5335    1.4576    0.0000 H       1  UNL1        0.0724
     28 H           4.7365    1.4576    0.0000 H       1  UNL1        0.0724
     29 H           2.3660    0.4266    0.0000 H       1  UNL1        0.0258
     30 H           2.5930   -0.4203    0.0000 H       1  UNL1        0.0258
     31 H           3.4399   -0.1934    0.0000 H       1  UNL1        0.0258
     32 H           4.4399    1.5387    0.0000 H       1  UNL1        0.0258
     33 H           4.2130    2.3856    0.0000 H       1  UNL1        0.0258
     34 H           3.3660    2.1587    0.0000 H       1  UNL1        0.0258
     35 H           7.9451   -1.0999    0.0000 H       1  UNL1        0.0392
     36 H           8.3437   -0.4097    0.0000 H       1  UNL1        0.0392
     37 H           6.3301   -1.7073    0.0000 H       1  UNL1        0.0372
     38 H           2.0000    1.1727    0.0000 H       1  UNL1        0.2102
     39 H           6.3301    2.2927    0.0000 H       1  UNL1        0.0654
     40 H           3.7320   -0.8273    0.0000 H       1  UNL1        0.2100
     41 H           7.7331    3.1027    0.0000 H       1  UNL1        0.0626
     42 H           5.6910   -1.9804    0.0000 H       1  UNL1        0.0236
     43 H           5.4641   -2.8273    0.0000 H       1  UNL1        0.0236
     44 H           6.3110   -3.0543    0.0000 H       1  UNL1        0.0236
     45 H           7.4231   -3.0543    0.0000 H       1  UNL1        0.0236
     46 H           8.2700   -2.8273    0.0000 H       1  UNL1        0.0236
     47 H           8.0431   -1.9804    0.0000 H       1  UNL1        0.0236
     48 H           9.4859    3.1373    0.0000 H       1  UNL1        0.0627
     49 H          10.9349    2.3156    0.0000 H       1  UNL1        0.0689
@<TRIPOS>BOND
     1     1     9    1
     2     1    14    1
     3     2     7    1
     4     2    38    1
     5     3     8    1
     6     3    40    1
     7     4    15   ar
     8     4    25   ar
     9     5    17    2
    10     6    25    2
    11     7     8    1
    12     7    10    1
    13     7    11    1
    14     8     9    1
    15     8    26    1
    16     9    27    1
    17     9    28    1
    18    10    29    1
    19    10    30    1
    20    10    31    1
    21    11    32    1
    22    11    33    1
    23    11    34    1
    24    12    13    1
    25    12    14   ar
    26    12    15   ar
    27    13    17    1
    28    13    35    1
    29    13    36    1
    30    14    19   ar
    31    15    18   ar
    32    16    17    1
    33    16    21    1
    34    16    22    1
    35    16    37    1
    36    18    20   ar
    37    18    23   ar
    38    19    20   ar
    39    19    39    1
    40    20    41    1
    41    21    42    1
    42    21    43    1
    43    21    44    1
    44    22    45    1
    45    22    46    1
    46    22    47    1
    47    23    24   ar
    48    23    48    1
    49    24    25   ar
    50    24    49    1
