@<TRIPOS>MOLECULE
IMPHY000412
 82 86 0 0 0
SMALL
GASTEIGER

@<TRIPOS>ATOM
      1 O          11.1972   -1.5169    0.0000 O.3     1  UNL1       -0.3302
      2 O          12.9292   -1.5169    0.0000 O.3     1  UNL1       -0.4571
      3 O          11.1972   -4.5169    0.0000 O.3     1  UNL1       -0.3864
      4 O           9.4651   -3.5169    0.0000 O.3     1  UNL1       -0.3864
      5 O          12.9292   -3.5169    0.0000 O.3     1  UNL1       -0.3829
      6 O           8.5991   -2.0169    0.0000 O.3     1  UNL1       -0.4589
      7 O          11.1972   -0.5169    0.0000 O.3     1  UNL1       -0.5033
      8 O          14.1272    4.2900    0.0000 O.3     1  UNL1       -0.4793
      9 O          15.6272    3.4240    0.0000 O.2     1  UNL1       -0.2489
     10 O           7.7331   -0.5169    0.0000 O.2     1  UNL1       -0.2456
     11 O          20.4498    3.0582    0.0000 O.3     1  UNL1       -0.4791
     12 OXT        19.1607    4.2149    0.0000 O.2     1  UNL1       -0.2486
     13 O          19.7355   -0.3315    0.0000 O.3     1  UNL1       -0.4761
     14 OXT        18.0891   -0.8695    0.0000 O.2     1  UNL1       -0.2434
     15 O           2.5369   -3.5169    0.0000 O.3     1  UNL1       -0.5068
     16 N          14.5323    1.6502    0.0000 N.pl3   1  UNL1       -0.2920
     17 N          19.1141    1.5696    0.0000 N.2     1  UNL1       -0.2620
     18 C          11.1972   -3.5169    0.0000 C.3     1  UNL1        0.1152
     19 C          10.3312   -3.0169    0.0000 C.3     1  UNL1        0.1130
     20 C          12.0632   -3.0169    0.0000 C.3     1  UNL1        0.1454
     21 C          10.3312   -2.0169    0.0000 C.3     1  UNL1        0.1250
     22 C          12.0632   -2.0169    0.0000 C.3     1  UNL1        0.2310
     23 C          14.1272    2.5579    0.0000 C.3     1  UNL1        0.1285
     24 C           9.4651   -1.5169    0.0000 C.3     1  UNL1        0.1215
     25 C          13.1384    2.4549    0.0000 C.3     1  UNL1        0.0035
     26 C          13.7953    0.9831    0.0000 C.ar    1  UNL1        0.0412
     27 C          12.9292    1.4831    0.0000 C.ar    1  UNL1       -0.0200
     28 C          12.9292   -0.5169    0.0000 C.ar    1  UNL1        0.1669
     29 C          13.7953   -0.0169    0.0000 C.ar    1  UNL1        0.0055
     30 C          12.0632    0.9831    0.0000 C.ar    1  UNL1       -0.0115
     31 C          12.0632   -0.0169    0.0000 C.ar    1  UNL1        0.1589
     32 C          15.5108    1.4439    0.0000 C.2     1  UNL1       -0.0021
     33 C          14.6272    3.4240    0.0000 C.2     1  UNL1        0.3260
     34 C          16.1786    2.1882    0.0000 C.2     1  UNL1       -0.0444
     35 C          17.1571    1.9820    0.0000 C.2     1  UNL1       -0.0414
     36 C           7.7331   -1.5169    0.0000 C.2     1  UNL1        0.3320
     37 C          17.8250    2.7263    0.0000 C.3     1  UNL1        0.0053
     38 CA         18.8035    2.5201    0.0000 C.3     1  UNL1        0.1519
     39 C          17.4678    1.0315    0.0000 C.2     1  UNL1       -0.0264
     40 CA         18.4463    0.8253    0.0000 C.2     1  UNL1        0.1433
     41 C           6.8671   -2.0169    0.0000 C.2     1  UNL1        0.0231
     42 C          19.4713    3.2644    0.0000 C.2     1  UNL1        0.3298
     43 C           6.0010   -1.5169    0.0000 C.2     1  UNL1       -0.0478
     44 C          18.7570   -0.1252    0.0000 C.2     1  UNL1        0.3549
     45 C           5.1350   -2.0169    0.0000 C.ar    1  UNL1       -0.0246
     46 C           4.2690   -1.5169    0.0000 C.ar    1  UNL1       -0.0511
     47 C           5.1350   -3.0169    0.0000 C.ar    1  UNL1       -0.0511
     48 C           3.4030   -2.0169    0.0000 C.ar    1  UNL1       -0.0196
     49 C           4.2690   -3.5169    0.0000 C.ar    1  UNL1       -0.0196
     50 C           3.4030   -3.0169    0.0000 C.ar    1  UNL1        0.1169
     51 H          11.7341   -3.8269    0.0000 H       1  UNL1        0.0648
     52 H           9.7942   -2.7069    0.0000 H       1  UNL1        0.0647
     53 H          12.6002   -2.7069    0.0000 H       1  UNL1        0.0683
     54 H          10.3312   -1.3969    0.0000 H       1  UNL1        0.0658
     55 H          12.0632   -1.3969    0.0000 H       1  UNL1        0.1084
     56 H          14.7463    2.5258    0.0000 H       1  UNL1        0.0622
     57 H           9.8637   -1.0420    0.0000 H       1  UNL1        0.0725
     58 H           9.0666   -1.0420    0.0000 H       1  UNL1        0.0725
     59 H          13.1393    3.0749    0.0000 H       1  UNL1        0.0337
     60 H          12.5220    2.5209    0.0000 H       1  UNL1        0.0337
     61 H          14.3322   -0.3269    0.0000 H       1  UNL1        0.0674
     62 H          10.6603   -4.8269    0.0000 H       1  UNL1        0.2100
     63 H           9.4651   -4.1369    0.0000 H       1  UNL1        0.2100
     64 H          12.9292   -4.1369    0.0000 H       1  UNL1        0.2102
     65 H          11.5263    1.2931    0.0000 H       1  UNL1        0.0658
     66 H          15.7034    0.8546    0.0000 H       1  UNL1        0.0784
     67 H          15.9860    2.7776    0.0000 H       1  UNL1        0.0633
     68 H          10.6603   -0.2069    0.0000 H       1  UNL1        0.2923
     69 H          18.0562    3.3016    0.0000 H       1  UNL1        0.0339
     70 H          17.2986    3.0540    0.0000 H       1  UNL1        0.0339
     71 H          14.4372    4.8269    0.0000 H       1  UNL1        0.2951
     72 HA         19.4102    2.3923    0.0000 H       1  UNL1        0.0664
     73 H          17.0537    0.5700    0.0000 H       1  UNL1        0.0644
     74 H           6.8671   -2.6369    0.0000 H       1  UNL1        0.0689
     75 H           6.0010   -0.8969    0.0000 H       1  UNL1        0.0626
     76 H          20.8639    3.5196    0.0000 H       1  UNL1        0.2951
     77 H          19.9281   -0.9208    0.0000 H       1  UNL1        0.2955
     78 H           4.2690   -0.8969    0.0000 H       1  UNL1        0.0625
     79 H           5.6720   -3.3269    0.0000 H       1  UNL1        0.0625
     80 H           2.8660   -1.7069    0.0000 H       1  UNL1        0.0654
     81 H           4.2690   -4.1369    0.0000 H       1  UNL1        0.0654
     82 H           2.0000   -3.2069    0.0000 H       1  UNL1        0.2921
@<TRIPOS>BOND
     1     1    21    1
     2     1    22    1
     3    22     2    1
     4     2    28    1
     5    18     3    1
     6     3    62    1
     7    19     4    1
     8     4    63    1
     9    20     5    1
    10     5    64    1
    11     6    24    1
    12     6    36    1
    13     7    31    1
    14     7    68    1
    15     8    33    1
    16     8    71    1
    17     9    33    2
    18    10    36    2
    19    11    42    1
    20    11    76    1
    21    12    42    2
    22    13    44    1
    23    13    77    1
    24    14    44    2
    25    15    50    1
    26    15    82    1
    27    16    23    1
    28    16    26    1
    29    16    32    1
    30    17    38    1
    31    17    40    2
    32    18    19    1
    33    18    20    1
    34    18    51    1
    35    19    21    1
    36    19    52    1
    37    20    22    1
    38    20    53    1
    39    21    24    1
    40    21    54    1
    41    22    55    1
    42    23    25    1
    43    23    33    1
    44    23    56    1
    45    24    57    1
    46    24    58    1
    47    25    27    1
    48    25    59    1
    49    25    60    1
    50    26    27   ar
    51    26    29   ar
    52    27    30   ar
    53    28    29   ar
    54    28    31   ar
    55    29    61    1
    56    30    31   ar
    57    30    65    1
    58    32    34    2
    59    32    66    1
    60    34    35    1
    61    34    67    1
    62    35    37    1
    63    35    39    2
    64    36    41    1
    65    37    38    1
    66    37    69    1
    67    37    70    1
    68    38    42    1
    69    38    72    1
    70    39    40    1
    71    39    73    1
    72    40    44    1
    73    41    43    2
    74    41    74    1
    75    43    45    1
    76    43    75    1
    77    45    46   ar
    78    45    47   ar
    79    46    48   ar
    80    46    78    1
    81    47    49   ar
    82    47    79    1
    83    48    50   ar
    84    48    80    1
    85    49    50   ar
    86    49    81    1
