@<TRIPOS>MOLECULE
IMPHY007405
 56 58 0 0 0
SMALL
GASTEIGER

@<TRIPOS>ATOM
      1 O           4.8936    0.5441    0.0000 O.3     1  UNL1       -0.4845
      2 O           2.3100   -0.2607    0.0000 O.3     1  UNL1       -0.3855
      3 O           8.4819    0.7462    0.0000 O.2     1  UNL1       -0.4212
      4 O           6.7058   -2.2607    0.0000 O.3     1  UNL1       -0.5055
      5 O           9.3039   -0.7607    0.0000 O.2     1  UNL1       -0.2915
      6 O           9.3579    2.2844    0.0000 O.2     1  UNL1       -0.2452
      7 C           4.3100   -0.2607    0.0000 C.3     1  UNL1        0.1324
      8 C           4.8936   -1.0654    0.0000 C.3     1  UNL1        0.0192
      9 C           3.3100   -0.2607    0.0000 C.3     1  UNL1        0.0974
     10 C           5.8398   -0.7607    0.0000 C.ar    1  UNL1        0.0407
     11 C           5.8398    0.2393    0.0000 C.ar    1  UNL1        0.1387
     12 C           6.7058    0.7393    0.0000 C.ar    1  UNL1        0.0636
     13 C           6.7058   -1.2607    0.0000 C.ar    1  UNL1        0.1377
     14 C           7.5719   -0.7607    0.0000 C.ar    1  UNL1        0.1024
     15 C           7.5719    0.2393    0.0000 C.ar    1  UNL1        0.1568
     16 C           3.3100   -1.2607    0.0000 C.3     1  UNL1       -0.0328
     17 C           3.3100    0.7393    0.0000 C.3     1  UNL1       -0.0328
     18 C           6.6898    1.7808    0.0000 C.ar    1  UNL1       -0.0264
     19 C           8.4379   -1.2607    0.0000 C.2     1  UNL1        0.1730
     20 C           8.4379   -2.2607    0.0000 C.3     1  UNL1        0.0193
     21 C           5.8181    2.2708    0.0000 C.3     1  UNL1       -0.0269
     22 C           7.5878    2.3086    0.0000 C.ar    1  UNL1        0.0269
     23 C           9.3039   -2.7607    0.0000 C.3     1  UNL1       -0.0463
     24 C           5.8065    3.2707    0.0000 C.3     1  UNL1       -0.0519
     25 C           8.4899    1.7878    0.0000 C.ar    1  UNL1        0.3375
     26 C           7.5719   -2.7607    0.0000 C.3     1  UNL1       -0.0554
     27 C           9.3039   -3.7607    0.0000 C.3     1  UNL1       -0.0646
     28 C           4.9347    3.7607    0.0000 C.3     1  UNL1       -0.0650
     29 H           4.0283    0.2916    0.0000 H       1  UNL1        0.0765
     30 H           4.3562   -1.3746    0.0000 H       1  UNL1        0.0352
     31 H           5.1446   -1.6323    0.0000 H       1  UNL1        0.0352
     32 H           3.9300    0.7393    0.0000 H       1  UNL1        0.0258
     33 H           3.3100    1.3593    0.0000 H       1  UNL1        0.0258
     34 H           2.6900    0.7393    0.0000 H       1  UNL1        0.0258
     35 H           2.6900   -1.2607    0.0000 H       1  UNL1        0.0258
     36 H           3.3100   -1.8807    0.0000 H       1  UNL1        0.0258
     37 H           3.9300   -1.2607    0.0000 H       1  UNL1        0.0258
     38 H           7.9010   -1.9507    0.0000 H       1  UNL1        0.0378
     39 H           2.0000   -0.7976    0.0000 H       1  UNL1        0.2103
     40 H           5.2063    2.3714    0.0000 H       1  UNL1        0.0313
     41 H           5.6127    1.6858    0.0000 H       1  UNL1        0.0313
     42 H           7.5854    2.9286    0.0000 H       1  UNL1        0.0692
     43 H           9.9145   -2.8683    0.0000 H       1  UNL1        0.0269
     44 H           9.5160   -2.1781    0.0000 H       1  UNL1        0.0269
     45 H           6.4183    3.1701    0.0000 H       1  UNL1        0.0266
     46 H           6.0118    3.8557    0.0000 H       1  UNL1        0.0266
     47 H           6.1689   -2.5707    0.0000 H       1  UNL1        0.2922
     48 H           7.2619   -2.2237    0.0000 H       1  UNL1        0.0237
     49 H           7.0349   -3.0707    0.0000 H       1  UNL1        0.0237
     50 H           7.8819   -3.2976    0.0000 H       1  UNL1        0.0237
     51 H           8.6839   -3.7607    0.0000 H       1  UNL1        0.0230
     52 H           9.3039   -4.3807    0.0000 H       1  UNL1        0.0230
     53 H           9.9239   -3.7607    0.0000 H       1  UNL1        0.0230
     54 H           5.2385    4.3012    0.0000 H       1  UNL1        0.0230
     55 H           4.3943    4.0644    0.0000 H       1  UNL1        0.0230
     56 H           4.6310    3.2202    0.0000 H       1  UNL1        0.0230
@<TRIPOS>BOND
     1     1     7    1
     2     1    11    1
     3     2     9    1
     4     2    39    1
     5     3    15   ar
     6     3    25   ar
     7     4    13    1
     8     4    47    1
     9     5    19    2
    10     6    25    2
    11     7     8    1
    12     7     9    1
    13     7    29    1
    14     8    10    1
    15     8    30    1
    16     8    31    1
    17     9    16    1
    18     9    17    1
    19    10    11   ar
    20    10    13   ar
    21    11    12   ar
    22    12    15   ar
    23    12    18   ar
    24    13    14   ar
    25    14    15   ar
    26    14    19    1
    27    16    35    1
    28    16    36    1
    29    16    37    1
    30    17    32    1
    31    17    33    1
    32    17    34    1
    33    18    21    1
    34    18    22   ar
    35    19    20    1
    36    20    23    1
    37    20    26    1
    38    20    38    1
    39    21    24    1
    40    21    40    1
    41    21    41    1
    42    22    25   ar
    43    22    42    1
    44    23    27    1
    45    23    43    1
    46    23    44    1
    47    24    28    1
    48    24    45    1
    49    24    46    1
    50    26    48    1
    51    26    49    1
    52    26    50    1
    53    27    51    1
    54    27    52    1
    55    27    53    1
    56    28    54    1
    57    28    55    1
    58    28    56    1
