@<TRIPOS>MOLECULE
IMPHY006566
 25 24 0 0 0
SMALL
GASTEIGER

@<TRIPOS>ATOM
      1 O           4.5981   -0.7500    0.0000 O.2     1  UNL1       -0.2974
      2 C           6.3301    0.2500    0.0000 C.3     1  UNL1       -0.0401
      3 C           5.4641    0.7500    0.0000 C.3     1  UNL1        0.0082
      4 C           4.5981    0.2500    0.0000 C.2     1  UNL1        0.1336
      5 C           3.7320    0.7500    0.0000 C.3     1  UNL1        0.0056
      6 C           7.1962    0.7500    0.0000 C.3     1  UNL1       -0.0623
      7 C           6.3301   -0.7500    0.0000 C.3     1  UNL1       -0.0623
      8 C           2.8660    0.2500    0.0000 C.3     1  UNL1       -0.0492
      9 C           2.0000    0.7500    0.0000 C.3     1  UNL1       -0.0649
     10 H           6.8671   -0.0600    0.0000 H       1  UNL1        0.0299
     11 H           5.8626    1.2250    0.0000 H       1  UNL1        0.0344
     12 H           5.0656    1.2250    0.0000 H       1  UNL1        0.0344
     13 H           4.1306    1.2250    0.0000 H       1  UNL1        0.0341
     14 H           3.3335    1.2250    0.0000 H       1  UNL1        0.0341
     15 H           7.5062    0.2131    0.0000 H       1  UNL1        0.0232
     16 H           7.7331    1.0600    0.0000 H       1  UNL1        0.0232
     17 H           6.8862    1.2869    0.0000 H       1  UNL1        0.0232
     18 H           5.7101   -0.7500    0.0000 H       1  UNL1        0.0232
     19 H           6.3301   -1.3700    0.0000 H       1  UNL1        0.0232
     20 H           6.9501   -0.7500    0.0000 H       1  UNL1        0.0232
     21 H           2.4675   -0.2249    0.0000 H       1  UNL1        0.0267
     22 H           3.2646   -0.2249    0.0000 H       1  UNL1        0.0267
     23 H           2.3100    1.2869    0.0000 H       1  UNL1        0.0230
     24 H           1.4631    1.0600    0.0000 H       1  UNL1        0.0230
     25 H           1.6900    0.2131    0.0000 H       1  UNL1        0.0230
@<TRIPOS>BOND
     1     1     4    2
     2     2     3    1
     3     2     6    1
     4     2     7    1
     5     2    10    1
     6     3     4    1
     7     3    11    1
     8     3    12    1
     9     4     5    1
    10     5     8    1
    11     5    13    1
    12     5    14    1
    13     6    15    1
    14     6    16    1
    15     6    17    1
    16     7    18    1
    17     7    19    1
    18     7    20    1
    19     8     9    1
    20     8    21    1
    21     8    22    1
    22     9    23    1
    23     9    24    1
    24     9    25    1
