@<TRIPOS>MOLECULE
IMPHY012806
 91 90 0 0 0
SMALL
GASTEIGER

@<TRIPOS>ATOM
      1 O          12.0632   -0.7500    0.0000 O.2     1  UNL1       -0.2974
      2 O           2.5369    0.7500    0.0000 O.3     1  UNL1       -0.4806
      3 O           3.4030   -0.7500    0.0000 O.2     1  UNL1       -0.2510
      4 C          19.8574    0.7500    0.0000 C.3     1  UNL1       -0.0531
      5 C          18.9914    0.2500    0.0000 C.3     1  UNL1       -0.0531
      6 C          20.7235    0.2500    0.0000 C.3     1  UNL1       -0.0531
      7 C          18.1254    0.7500    0.0000 C.3     1  UNL1       -0.0531
      8 C          21.5895    0.7500    0.0000 C.3     1  UNL1       -0.0531
      9 C          17.2594    0.2500    0.0000 C.3     1  UNL1       -0.0531
     10 C          22.4555    0.2500    0.0000 C.3     1  UNL1       -0.0531
     11 C          16.3933    0.7500    0.0000 C.3     1  UNL1       -0.0531
     12 C          23.3215    0.7500    0.0000 C.3     1  UNL1       -0.0531
     13 C          15.5273    0.2500    0.0000 C.3     1  UNL1       -0.0530
     14 C          24.1876    0.2500    0.0000 C.3     1  UNL1       -0.0531
     15 C          14.6613    0.7500    0.0000 C.3     1  UNL1       -0.0527
     16 C          25.0536    0.7500    0.0000 C.3     1  UNL1       -0.0531
     17 C          13.7953    0.2500    0.0000 C.3     1  UNL1       -0.0464
     18 C          25.9196    0.2500    0.0000 C.3     1  UNL1       -0.0531
     19 C          12.9292    0.7500    0.0000 C.3     1  UNL1        0.0058
     20 C           9.4651    0.7500    0.0000 C.3     1  UNL1       -0.0527
     21 C           8.5991    0.2500    0.0000 C.3     1  UNL1       -0.0530
     22 C          10.3312    0.2500    0.0000 C.3     1  UNL1       -0.0464
     23 C           7.7331    0.7500    0.0000 C.3     1  UNL1       -0.0531
     24 C          11.1972    0.7500    0.0000 C.3     1  UNL1        0.0058
     25 C           6.8671    0.2500    0.0000 C.3     1  UNL1       -0.0530
     26 C          26.7856    0.7500    0.0000 C.3     1  UNL1       -0.0533
     27 C          12.0632    0.2500    0.0000 C.2     1  UNL1        0.1334
     28 C           6.0010    0.7500    0.0000 C.3     1  UNL1       -0.0526
     29 C          27.6517    0.2500    0.0000 C.3     1  UNL1       -0.0559
     30 C           5.1350    0.2500    0.0000 C.3     1  UNL1       -0.0430
     31 C           4.2690    0.7500    0.0000 C.3     1  UNL1        0.0448
     32 C          28.5177    0.7500    0.0000 C.3     1  UNL1       -0.0653
     33 C           3.4030    0.2500    0.0000 C.2     1  UNL1        0.3047
     34 H          20.2560    1.2250    0.0000 H       1  UNL1        0.0265
     35 H          19.4589    1.2250    0.0000 H       1  UNL1        0.0265
     36 H          18.5929   -0.2249    0.0000 H       1  UNL1        0.0265
     37 H          19.3899   -0.2249    0.0000 H       1  UNL1        0.0265
     38 H          20.3249   -0.2249    0.0000 H       1  UNL1        0.0265
     39 H          21.1220   -0.2249    0.0000 H       1  UNL1        0.0265
     40 H          18.5239    1.2250    0.0000 H       1  UNL1        0.0265
     41 H          17.7269    1.2250    0.0000 H       1  UNL1        0.0265
     42 H          21.9880    1.2250    0.0000 H       1  UNL1        0.0265
     43 H          21.1910    1.2250    0.0000 H       1  UNL1        0.0265
     44 H          16.8608   -0.2249    0.0000 H       1  UNL1        0.0265
     45 H          17.6579   -0.2249    0.0000 H       1  UNL1        0.0265
     46 H          22.0570   -0.2249    0.0000 H       1  UNL1        0.0265
     47 H          22.8540   -0.2249    0.0000 H       1  UNL1        0.0265
     48 H          16.7919    1.2250    0.0000 H       1  UNL1        0.0265
     49 H          15.9948    1.2250    0.0000 H       1  UNL1        0.0265
     50 H          23.7201    1.2250    0.0000 H       1  UNL1        0.0265
     51 H          22.9230    1.2250    0.0000 H       1  UNL1        0.0265
     52 H          15.1288   -0.2249    0.0000 H       1  UNL1        0.0265
     53 H          15.9258   -0.2249    0.0000 H       1  UNL1        0.0265
     54 H          23.7890   -0.2249    0.0000 H       1  UNL1        0.0265
     55 H          24.5861   -0.2249    0.0000 H       1  UNL1        0.0265
     56 H          15.0598    1.2250    0.0000 H       1  UNL1        0.0265
     57 H          14.2628    1.2250    0.0000 H       1  UNL1        0.0265
     58 H          25.4521    1.2250    0.0000 H       1  UNL1        0.0265
     59 H          24.6551    1.2250    0.0000 H       1  UNL1        0.0265
     60 H          13.3967   -0.2249    0.0000 H       1  UNL1        0.0269
     61 H          14.1938   -0.2249    0.0000 H       1  UNL1        0.0269
     62 H          25.5211   -0.2249    0.0000 H       1  UNL1        0.0265
     63 H          26.3182   -0.2249    0.0000 H       1  UNL1        0.0265
     64 H          13.3278    1.2250    0.0000 H       1  UNL1        0.0342
     65 H          12.5307    1.2250    0.0000 H       1  UNL1        0.0342
     66 H           9.8637    1.2250    0.0000 H       1  UNL1        0.0265
     67 H           9.0666    1.2250    0.0000 H       1  UNL1        0.0265
     68 H           8.2006   -0.2249    0.0000 H       1  UNL1        0.0265
     69 H           8.9976   -0.2249    0.0000 H       1  UNL1        0.0265
     70 H           9.9326   -0.2249    0.0000 H       1  UNL1        0.0269
     71 H          10.7297   -0.2249    0.0000 H       1  UNL1        0.0269
     72 H           8.1316    1.2250    0.0000 H       1  UNL1        0.0265
     73 H           7.3346    1.2250    0.0000 H       1  UNL1        0.0265
     74 H          11.5957    1.2250    0.0000 H       1  UNL1        0.0342
     75 H          10.7987    1.2250    0.0000 H       1  UNL1        0.0342
     76 H           6.4685   -0.2249    0.0000 H       1  UNL1        0.0265
     77 H           7.2656   -0.2249    0.0000 H       1  UNL1        0.0265
     78 H          27.1842    1.2250    0.0000 H       1  UNL1        0.0265
     79 H          26.3871    1.2250    0.0000 H       1  UNL1        0.0265
     80 H           6.3996    1.2250    0.0000 H       1  UNL1        0.0265
     81 H           5.6025    1.2250    0.0000 H       1  UNL1        0.0265
     82 H          27.2531   -0.2249    0.0000 H       1  UNL1        0.0263
     83 H          28.0502   -0.2249    0.0000 H       1  UNL1        0.0263
     84 H           4.7365   -0.2249    0.0000 H       1  UNL1        0.0270
     85 H           5.5335   -0.2249    0.0000 H       1  UNL1        0.0270
     86 H           4.6675    1.2250    0.0000 H       1  UNL1        0.0377
     87 H           3.8705    1.2250    0.0000 H       1  UNL1        0.0377
     88 H          28.8277    0.2131    0.0000 H       1  UNL1        0.0230
     89 H          29.0546    1.0600    0.0000 H       1  UNL1        0.0230
     90 H          28.2077    1.2869    0.0000 H       1  UNL1        0.0230
     91 H           2.0000    0.4400    0.0000 H       1  UNL1        0.2951
@<TRIPOS>BOND
     1     1    27    2
     2     2    33    1
     3     2    91    1
     4     3    33    2
     5     4     5    1
     6     4     6    1
     7     4    34    1
     8     4    35    1
     9     5     7    1
    10     5    36    1
    11     5    37    1
    12     6     8    1
    13     6    38    1
    14     6    39    1
    15     7     9    1
    16     7    40    1
    17     7    41    1
    18     8    10    1
    19     8    42    1
    20     8    43    1
    21     9    11    1
    22     9    44    1
    23     9    45    1
    24    10    12    1
    25    10    46    1
    26    10    47    1
    27    11    13    1
    28    11    48    1
    29    11    49    1
    30    12    14    1
    31    12    50    1
    32    12    51    1
    33    13    15    1
    34    13    52    1
    35    13    53    1
    36    14    16    1
    37    14    54    1
    38    14    55    1
    39    15    17    1
    40    15    56    1
    41    15    57    1
    42    16    18    1
    43    16    58    1
    44    16    59    1
    45    17    19    1
    46    17    60    1
    47    17    61    1
    48    18    26    1
    49    18    62    1
    50    18    63    1
    51    19    27    1
    52    19    64    1
    53    19    65    1
    54    20    21    1
    55    20    22    1
    56    20    66    1
    57    20    67    1
    58    21    23    1
    59    21    68    1
    60    21    69    1
    61    22    24    1
    62    22    70    1
    63    22    71    1
    64    23    25    1
    65    23    72    1
    66    23    73    1
    67    24    27    1
    68    24    74    1
    69    24    75    1
    70    25    28    1
    71    25    76    1
    72    25    77    1
    73    26    29    1
    74    26    78    1
    75    26    79    1
    76    28    30    1
    77    28    80    1
    78    28    81    1
    79    29    32    1
    80    29    82    1
    81    29    83    1
    82    30    31    1
    83    30    84    1
    84    30    85    1
    85    31    33    1
    86    31    86    1
    87    31    87    1
    88    32    88    1
    89    32    89    1
    90    32    90    1
