@<TRIPOS>MOLECULE
IMPHY014476
 73 72 0 0 0
SMALL
GASTEIGER

@<TRIPOS>ATOM
      1 O          14.9904   -0.5950    0.0000 O.3     1  UNL1       -0.3917
      2 O          16.7224   -0.5950    0.0000 O.3     1  UNL1       -0.3917
      3 C          14.9904    0.4050    0.0000 C.3     1  UNL1        0.0576
      4 C          14.1244    0.9050    0.0000 C.3     1  UNL1       -0.0268
      5 C          13.2583    0.4050    0.0000 C.3     1  UNL1       -0.0507
      6 C          15.8564    0.9050    0.0000 C.3     1  UNL1       -0.0007
      7 C          12.3923    0.9050    0.0000 C.3     1  UNL1       -0.0530
      8 C          11.5263    0.4050    0.0000 C.3     1  UNL1       -0.0531
      9 C          10.6603    0.9050    0.0000 C.3     1  UNL1       -0.0531
     10 C          16.7224    0.4050    0.0000 C.3     1  UNL1        0.0576
     11 C           9.7942    0.4050    0.0000 C.3     1  UNL1       -0.0531
     12 C           8.9282    0.9050    0.0000 C.3     1  UNL1       -0.0531
     13 C           8.0622    0.4050    0.0000 C.3     1  UNL1       -0.0531
     14 C          17.5885    0.9050    0.0000 C.3     1  UNL1       -0.0268
     15 C           7.1962    0.9050    0.0000 C.3     1  UNL1       -0.0531
     16 C           6.3301    0.4050    0.0000 C.3     1  UNL1       -0.0531
     17 C          18.4545    0.4050    0.0000 C.3     1  UNL1       -0.0507
     18 C           5.4641    0.9050    0.0000 C.3     1  UNL1       -0.0531
     19 C          19.3205    0.9050    0.0000 C.3     1  UNL1       -0.0532
     20 C           4.5981    0.4050    0.0000 C.3     1  UNL1       -0.0531
     21 C           3.7320    0.9050    0.0000 C.3     1  UNL1       -0.0533
     22 C          20.1865    0.4050    0.0000 C.3     1  UNL1       -0.0559
     23 C           2.8660    0.4050    0.0000 C.3     1  UNL1       -0.0559
     24 C          21.0526    0.9050    0.0000 C.3     1  UNL1       -0.0653
     25 C           2.0000    0.9050    0.0000 C.3     1  UNL1       -0.0653
     26 H          15.5273    0.0950    0.0000 H       1  UNL1        0.0594
     27 H          14.5229    1.3800    0.0000 H       1  UNL1        0.0290
     28 H          13.7258    1.3800    0.0000 H       1  UNL1        0.0290
     29 H          12.8598   -0.0699    0.0000 H       1  UNL1        0.0266
     30 H          13.6569   -0.0699    0.0000 H       1  UNL1        0.0266
     31 H          16.2549    1.3800    0.0000 H       1  UNL1        0.0315
     32 H          15.4579    1.3800    0.0000 H       1  UNL1        0.0315
     33 H          12.7908    1.3800    0.0000 H       1  UNL1        0.0265
     34 H          11.9938    1.3800    0.0000 H       1  UNL1        0.0265
     35 H          11.1278   -0.0699    0.0000 H       1  UNL1        0.0265
     36 H          11.9248   -0.0699    0.0000 H       1  UNL1        0.0265
     37 H          11.0588    1.3800    0.0000 H       1  UNL1        0.0265
     38 H          10.2617    1.3800    0.0000 H       1  UNL1        0.0265
     39 H          16.1855    0.0950    0.0000 H       1  UNL1        0.0594
     40 H           9.3957   -0.0699    0.0000 H       1  UNL1        0.0265
     41 H          10.1928   -0.0699    0.0000 H       1  UNL1        0.0265
     42 H           9.3267    1.3800    0.0000 H       1  UNL1        0.0265
     43 H           8.5297    1.3800    0.0000 H       1  UNL1        0.0265
     44 H           7.6636   -0.0699    0.0000 H       1  UNL1        0.0265
     45 H           8.4607   -0.0699    0.0000 H       1  UNL1        0.0265
     46 H          17.9870    1.3800    0.0000 H       1  UNL1        0.0290
     47 H          17.1899    1.3800    0.0000 H       1  UNL1        0.0290
     48 H           7.5947    1.3800    0.0000 H       1  UNL1        0.0265
     49 H           6.7976    1.3800    0.0000 H       1  UNL1        0.0265
     50 H           5.9316   -0.0699    0.0000 H       1  UNL1        0.0265
     51 H           6.7287   -0.0699    0.0000 H       1  UNL1        0.0265
     52 H          18.0560   -0.0699    0.0000 H       1  UNL1        0.0266
     53 H          18.8530   -0.0699    0.0000 H       1  UNL1        0.0266
     54 H           5.8626    1.3800    0.0000 H       1  UNL1        0.0265
     55 H           5.0656    1.3800    0.0000 H       1  UNL1        0.0265
     56 H          19.7190    1.3800    0.0000 H       1  UNL1        0.0265
     57 H          18.9220    1.3800    0.0000 H       1  UNL1        0.0265
     58 H           4.1996   -0.0699    0.0000 H       1  UNL1        0.0265
     59 H           4.9966   -0.0699    0.0000 H       1  UNL1        0.0265
     60 H           4.1306    1.3800    0.0000 H       1  UNL1        0.0265
     61 H           3.3335    1.3800    0.0000 H       1  UNL1        0.0265
     62 H          14.4534   -0.9050    0.0000 H       1  UNL1        0.2098
     63 H          19.7880   -0.0699    0.0000 H       1  UNL1        0.0263
     64 H          20.5851   -0.0699    0.0000 H       1  UNL1        0.0263
     65 H          17.2594   -0.9050    0.0000 H       1  UNL1        0.2098
     66 H           2.4675   -0.0699    0.0000 H       1  UNL1        0.0263
     67 H           3.2646   -0.0699    0.0000 H       1  UNL1        0.0263
     68 H          21.3626    0.3681    0.0000 H       1  UNL1        0.0230
     69 H          21.5895    1.2150    0.0000 H       1  UNL1        0.0230
     70 H          20.7426    1.4419    0.0000 H       1  UNL1        0.0230
     71 H           2.3100    1.4419    0.0000 H       1  UNL1        0.0230
     72 H           1.4631    1.2150    0.0000 H       1  UNL1        0.0230
     73 H           1.6900    0.3681    0.0000 H       1  UNL1        0.0230
@<TRIPOS>BOND
     1     1     3    1
     2     1    62    1
     3     2    10    1
     4     2    65    1
     5     3     4    1
     6     3     6    1
     7     3    26    1
     8     4     5    1
     9     4    27    1
    10     4    28    1
    11     5     7    1
    12     5    29    1
    13     5    30    1
    14     6    10    1
    15     6    31    1
    16     6    32    1
    17     7     8    1
    18     7    33    1
    19     7    34    1
    20     8     9    1
    21     8    35    1
    22     8    36    1
    23     9    11    1
    24     9    37    1
    25     9    38    1
    26    10    14    1
    27    10    39    1
    28    11    12    1
    29    11    40    1
    30    11    41    1
    31    12    13    1
    32    12    42    1
    33    12    43    1
    34    13    15    1
    35    13    44    1
    36    13    45    1
    37    14    17    1
    38    14    46    1
    39    14    47    1
    40    15    16    1
    41    15    48    1
    42    15    49    1
    43    16    18    1
    44    16    50    1
    45    16    51    1
    46    17    19    1
    47    17    52    1
    48    17    53    1
    49    18    20    1
    50    18    54    1
    51    18    55    1
    52    19    22    1
    53    19    56    1
    54    19    57    1
    55    20    21    1
    56    20    58    1
    57    20    59    1
    58    21    23    1
    59    21    60    1
    60    21    61    1
    61    22    24    1
    62    22    63    1
    63    22    64    1
    64    23    25    1
    65    23    66    1
    66    23    67    1
    67    24    68    1
    68    24    69    1
    69    24    70    1
    70    25    71    1
    71    25    72    1
    72    25    73    1
