@<TRIPOS>MOLECULE
IMPHY009994
 36 38 0 0 0
SMALL
GASTEIGER

@<TRIPOS>ATOM
      1 O           5.4920   -0.9226    0.0000 O.2     1  UNL1       -0.4544
      2 O           2.0000   -0.8879    0.0000 O.3     1  UNL1       -0.4946
      3 O           3.7320    2.1121    0.0000 O.3     1  UNL1       -0.5055
      4 O           5.4804    2.1467    0.0000 O.2     1  UNL1       -0.2869
      5 O           9.8544   -2.4221    0.0000 O.3     1  UNL1       -0.5068
      6 C           4.5981    0.6121    0.0000 C.ar    1  UNL1        0.1057
      7 C           4.5981   -0.3879    0.0000 C.ar    1  UNL1        0.1463
      8 C           2.8660    0.6121    0.0000 C.ar    1  UNL1        0.0335
      9 C           3.7320    1.1121    0.0000 C.ar    1  UNL1        0.1376
     10 C           2.8660   -0.3879    0.0000 C.ar    1  UNL1        0.1300
     11 C           3.7320   -0.8879    0.0000 C.ar    1  UNL1        0.0236
     12 C           6.3981   -0.4087    0.0000 C.ar    1  UNL1        0.1392
     13 C           5.4920    1.1467    0.0000 C.ar    1  UNL1        0.1966
     14 C           6.3981    0.6329    0.0000 C.ar    1  UNL1        0.0288
     15 C           7.2622   -0.9121    0.0000 C.ar    1  UNL1        0.0176
     16 C           2.0000    1.1121    0.0000 C.3     1  UNL1       -0.0327
     17 C           8.1301   -0.4154    0.0000 C.ar    1  UNL1       -0.0476
     18 C           7.2583   -1.9121    0.0000 C.ar    1  UNL1       -0.0476
     19 C           8.9942   -0.9188    0.0000 C.ar    1  UNL1       -0.0195
     20 C           8.1224   -2.4154    0.0000 C.ar    1  UNL1       -0.0195
     21 C           8.9904   -1.9187    0.0000 C.ar    1  UNL1        0.1169
     22 C           2.0000   -1.8879    0.0000 C.3     1  UNL1        0.0788
     23 H           3.7320   -1.5079    0.0000 H       1  UNL1        0.0691
     24 H           6.9338    0.9450    0.0000 H       1  UNL1        0.0693
     25 H           2.3100    1.6490    0.0000 H       1  UNL1        0.0280
     26 H           1.4631    1.4221    0.0000 H       1  UNL1        0.0280
     27 H           1.6900    0.5751    0.0000 H       1  UNL1        0.0280
     28 H           8.1325    0.2046    0.0000 H       1  UNL1        0.0626
     29 H           6.7202   -2.2200    0.0000 H       1  UNL1        0.0626
     30 H           3.1951    2.4221    0.0000 H       1  UNL1        0.2922
     31 H           9.5323   -0.6108    0.0000 H       1  UNL1        0.0654
     32 H           8.1200   -3.0354    0.0000 H       1  UNL1        0.0654
     33 H           1.3800   -1.8879    0.0000 H       1  UNL1        0.0660
     34 H           2.0000   -2.5079    0.0000 H       1  UNL1        0.0660
     35 H           2.6200   -1.8879    0.0000 H       1  UNL1        0.0660
     36 H          10.3926   -2.1142    0.0000 H       1  UNL1        0.2921
@<TRIPOS>BOND
     1     1     7   ar
     2     1    12   ar
     3     2    10    1
     4     2    22    1
     5     3     9    1
     6     3    30    1
     7     4    13    2
     8     5    21    1
     9     5    36    1
    10     6     7   ar
    11     6     9   ar
    12     6    13   ar
    13     7    11   ar
    14     8     9   ar
    15     8    10   ar
    16     8    16    1
    17    10    11   ar
    18    11    23    1
    19    12    14   ar
    20    12    15    1
    21    13    14   ar
    22    14    24    1
    23    15    17   ar
    24    15    18   ar
    25    16    25    1
    26    16    26    1
    27    16    27    1
    28    17    19   ar
    29    17    28    1
    30    18    20   ar
    31    18    29    1
    32    19    21   ar
    33    19    31    1
    34    20    21   ar
    35    20    32    1
    36    22    33    1
    37    22    34    1
    38    22    35    1
