@<TRIPOS>MOLECULE
IMPHY010396
 28 30 0 0 0
SMALL
GASTEIGER

@<TRIPOS>ATOM
      1 O           6.3701   -2.1249    0.0000 O.3     1  UNL1       -0.4790
      2 O           4.6000   -0.0661    0.0000 O.3     1  UNL1       -0.4416
      3 O           6.3817    0.9443    0.0000 O.3     1  UNL1       -0.4435
      4 O           8.1141    0.9513    0.0000 O.2     1  UNL1       -0.4211
      5 O           3.7282   -1.5627    0.0000 O.2     1  UNL1       -0.2453
      6 O           4.6498    0.9644    0.0000 O.2     1  UNL1       -0.2501
      7 O           9.0082    2.4790    0.0000 O.2     1  UNL1       -0.2445
      8 C           5.4641   -1.6111    0.0000 C.3     1  UNL1        0.1736
      9 C           5.4641   -0.5694    0.0000 C.3     1  UNL1        0.2491
     10 C           6.3701   -0.0556    0.0000 C.3     1  UNL1        0.2401
     11 C           7.2641   -0.5902    0.0000 C.ar    1  UNL1        0.0896
     12 C           7.2641   -1.5902    0.0000 C.ar    1  UNL1        0.1408
     13 C           4.9674   -2.4790    0.0000 C.3     1  UNL1        0.0475
     14 C           4.4641   -1.6149    0.0000 C.3     1  UNL1        0.0475
     15 C           8.1301   -0.0902    0.0000 C.ar    1  UNL1        0.1510
     16 C           8.1301   -2.0902    0.0000 C.ar    1  UNL1        0.0369
     17 C           8.9961   -0.5902    0.0000 C.ar    1  UNL1        0.0349
     18 C           8.9961   -1.5902    0.0000 C.ar    1  UNL1        0.0061
     19 C           3.7320   -0.5628    0.0000 C.2     1  UNL1        0.3370
     20 C           9.9061   -0.0834    0.0000 C.ar    1  UNL1        0.0097
     21 C           5.5215    1.4543    0.0000 C.2     1  UNL1        0.3179
     22 C           9.0121    1.4790    0.0000 C.ar    1  UNL1        0.3459
     23 C           9.9142    0.9582    0.0000 C.ar    1  UNL1        0.0824
     24 C           2.8679   -0.0594    0.0000 C.2     1  UNL1        0.0495
     25 C           5.5331    2.4543    0.0000 C.3     1  UNL1        0.1212
     26 C           2.0000   -0.5561    0.0000 C.3     1  UNL1        0.0375
     27 C           2.8718    0.9406    0.0000 C.2     1  UNL1       -0.0236
     28 C           2.0077    1.4439    0.0000 C.3     1  UNL1        0.0306
@<TRIPOS>BOND
     1     1     8    1
     2     1    12    1
     3     2    19    1
     4     3    21    1
     5     4    15   ar
     6     4    22   ar
     7     5    19    2
     8     6    21    2
     9     7    22    2
    10     8     9    1
    11     8    13    1
    12     8    14    1
    13     9     2    1
    14     9    10    1
    15    10     3    1
    16    10    11    1
    17    11    12   ar
    18    11    15   ar
    19    12    16   ar
    20    15    17   ar
    21    16    18   ar
    22    17    18   ar
    23    17    20   ar
    24    19    24    1
    25    20    23   ar
    26    21    25    1
    27    22    23   ar
    28    24    26    1
    29    24    27    2
    30    27    28    1
