@<TRIPOS>MOLECULE
IMPHY000800
 42 43 0 0 0
SMALL
GASTEIGER

@<TRIPOS>ATOM
      1 O           2.5369   -1.9050    0.0000 O.3     1  UNL1       -0.5064
      2 O           4.2690   -4.9050    0.0000 O.3     1  UNL1       -0.4950
      3 O           6.0010    5.0950    0.0000 O.3     1  UNL1       -0.5068
      4 C           4.2690   -0.9050    0.0000 C.3     1  UNL1        0.0007
      5 C           5.1350   -0.4050    0.0000 C.2     1  UNL1       -0.0471
      6 C           6.0010    1.0950    0.0000 C.3     1  UNL1       -0.0027
      7 C           5.1350    0.5950    0.0000 C.2     1  UNL1       -0.0472
      8 C           4.2690   -1.9050    0.0000 C.ar    1  UNL1       -0.0014
      9 C           6.0010    2.0950    0.0000 C.ar    1  UNL1       -0.0428
     10 C           3.4030   -2.4050    0.0000 C.ar    1  UNL1        0.1238
     11 C           5.1350   -2.4050    0.0000 C.ar    1  UNL1       -0.0513
     12 C           6.8671    2.5950    0.0000 C.ar    1  UNL1       -0.0548
     13 C           5.1350    2.5950    0.0000 C.ar    1  UNL1       -0.0548
     14 C           3.4030   -3.4050    0.0000 C.ar    1  UNL1        0.0218
     15 C           5.1350   -3.4050    0.0000 C.ar    1  UNL1       -0.0195
     16 C           4.2690   -3.9050    0.0000 C.ar    1  UNL1        0.1236
     17 C           6.0010   -0.9050    0.0000 C.2     1  UNL1       -0.0949
     18 C           4.2690    1.0950    0.0000 C.2     1  UNL1       -0.0949
     19 C           6.8671    3.5950    0.0000 C.ar    1  UNL1       -0.0199
     20 C           5.1350    3.5950    0.0000 C.ar    1  UNL1       -0.0199
     21 C           6.0010    4.0950    0.0000 C.ar    1  UNL1        0.1169
     22 C           5.1350   -5.4050    0.0000 C.3     1  UNL1        0.0788
     23 H           4.0569   -0.3224    0.0000 H       1  UNL1        0.0362
     24 H           3.6584   -1.0127    0.0000 H       1  UNL1        0.0362
     25 H           6.2131    0.5124    0.0000 H       1  UNL1        0.0361
     26 H           6.6116    1.2027    0.0000 H       1  UNL1        0.0361
     27 H           5.6720   -2.0950    0.0000 H       1  UNL1        0.0623
     28 H           7.4040    2.2850    0.0000 H       1  UNL1        0.0622
     29 H           4.5981    2.2850    0.0000 H       1  UNL1        0.0622
     30 H           2.8660   -3.7150    0.0000 H       1  UNL1        0.0691
     31 H           5.6720   -3.7150    0.0000 H       1  UNL1        0.0654
     32 H           6.0010   -1.5250    0.0000 H       1  UNL1        0.0538
     33 H           6.5380   -0.5950    0.0000 H       1  UNL1        0.0538
     34 H           4.2690    1.7150    0.0000 H       1  UNL1        0.0538
     35 H           3.7320    0.7850    0.0000 H       1  UNL1        0.0538
     36 H           7.4040    3.9050    0.0000 H       1  UNL1        0.0654
     37 H           4.5981    3.9050    0.0000 H       1  UNL1        0.0654
     38 H           2.0000   -2.2150    0.0000 H       1  UNL1        0.2921
     39 H           4.8250   -5.9419    0.0000 H       1  UNL1        0.0660
     40 H           5.6720   -5.7150    0.0000 H       1  UNL1        0.0660
     41 H           5.4450   -4.8681    0.0000 H       1  UNL1        0.0660
     42 H           6.5380    5.4050    0.0000 H       1  UNL1        0.2921
@<TRIPOS>BOND
     1     1    10    1
     2     1    38    1
     3     2    16    1
     4     2    22    1
     5     3    21    1
     6     3    42    1
     7     4     5    1
     8     4     8    1
     9     4    23    1
    10     4    24    1
    11     5     7    1
    12     5    17    2
    13     6     7    1
    14     6     9    1
    15     6    25    1
    16     6    26    1
    17     7    18    2
    18     8    10   ar
    19     8    11   ar
    20     9    12   ar
    21     9    13   ar
    22    10    14   ar
    23    11    15   ar
    24    11    27    1
    25    12    19   ar
    26    12    28    1
    27    13    20   ar
    28    13    29    1
    29    14    16   ar
    30    14    30    1
    31    15    16   ar
    32    15    31    1
    33    17    32    1
    34    17    33    1
    35    18    34    1
    36    18    35    1
    37    19    21   ar
    38    19    36    1
    39    20    21   ar
    40    20    37    1
    41    22    39    1
    42    22    40    1
    43    22    41    1
