@<TRIPOS>MOLECULE
IMPHY014132
 103 112 0 0 0
SMALL
GASTEIGER

@<TRIPOS>ATOM
      1 O           5.0635   -3.7238    0.0000 O.3     1  UNL1       -0.4677
      2 O           6.0653   -2.3109    0.0000 O.2     1  UNL1       -0.2505
      3 O          12.7533    3.3027    0.0000 O.3     1  UNL1       -0.4646
      4 O           7.6727   -1.4613    0.0000 O.2     1  UNL1       -0.2872
      5 O           6.9310    2.0155    0.0000 O.3     1  UNL1       -0.4944
      6 O          11.0220    3.3565    0.0000 O.2     1  UNL1       -0.2453
      7 N           3.8732    0.9525    0.0000 N.3     1  UNL1       -0.2740
      8 N          11.7540   -0.9725    0.0000 N.3     1  UNL1       -0.2976
      9 N           3.9336    0.4265    0.0000 N.2     1  UNL1       -0.2605
     10 N          10.2229    1.8806    0.0000 N.pl3   1  UNL1       -0.3050
     11 C           4.4336   -1.1123    0.0000 C.3     1  UNL1        0.0509
     12 C           3.6246   -0.5245    0.0000 C.3     1  UNL1        0.1256
     13 C          11.7830   -0.0382    0.0000 C.3     1  UNL1        0.0312
     14 C           4.3407   -2.1498    0.0000 C.3     1  UNL1        0.0761
     15 C          10.9885    0.4540    0.0000 C.3     1  UNL1        0.0532
     16 C          12.6066    0.4038    0.0000 C.3     1  UNL1       -0.0085
     17 C           3.3924   -2.5808    0.0000 C.3     1  UNL1       -0.0047
     18 C           5.7615   -0.4194    0.0000 C.3     1  UNL1       -0.0261
     19 C           2.6666   -0.9335    0.0000 C.3     1  UNL1       -0.0126
     20 C           5.3692    1.0261    0.0000 C.3     1  UNL1        0.0023
     21 C           2.5498   -1.9685    0.0000 C.3     1  UNL1       -0.0422
     22 C           5.2426   -0.5245    0.0000 C.2     1  UNL1       -0.0081
     23 C          10.0376   -0.1087    0.0000 C.3     1  UNL1       -0.0237
     24 C          11.0175    1.3883    0.0000 C.2     1  UNL1        0.0327
     25 C           3.6719   -0.2194    0.0000 C.3     1  UNL1        0.0225
     26 C          13.4012   -0.0885    0.0000 C.3     1  UNL1       -0.0445
     27 C          12.6357    1.3380    0.0000 C.3     1  UNL1       -0.0123
     28 C          10.9304   -1.4145    0.0000 C.3     1  UNL1        0.0004
     29 C           3.5116   -1.3976    0.0000 C.2     1  UNL1       -0.0558
     30 C           9.3703    0.5043    0.0000 C.ar    1  UNL1       -0.0120
     31 C           4.9336    0.4265    0.0000 C.2     1  UNL1        0.0653
     32 C          12.5486   -1.4648    0.0000 C.3     1  UNL1       -0.0008
     33 C          13.4878    0.8767    0.0000 C.3     1  UNL1       -0.0485
     34 C          13.3722   -1.0227    0.0000 C.3     1  UNL1       -0.0396
     35 C          11.8411    1.8303    0.0000 C.2     1  UNL1        0.0552
     36 C           5.1565   -2.7282    0.0000 C.2     1  UNL1        0.3115
     37 C           9.3993    1.4386    0.0000 C.ar    1  UNL1        0.0412
     38 C           6.0059   -1.2334    0.0000 C.2     1  UNL1       -0.0085
     39 C           8.5467    0.0623    0.0000 C.ar    1  UNL1       -0.0445
     40 C           5.9192    0.7637    0.0000 C.2     1  UNL1       -0.0249
     41 C           2.5185   -1.2801    0.0000 C.2     1  UNL1       -0.0864
     42 C           6.8709    0.0817    0.0000 C.2     1  UNL1        0.0343
     43 C           7.7521    0.5546    0.0000 C.ar    1  UNL1        0.0279
     44 C          14.3379    0.3500    0.0000 C.3     1  UNL1       -0.0647
     45 C           6.8267   -0.9281    0.0000 C.2     1  UNL1        0.1871
     46 C           8.6047    1.9308    0.0000 C.ar    1  UNL1        0.0023
     47 C          11.8721    2.8298    0.0000 C.2     1  UNL1        0.3364
     48 C          10.2539    2.8801    0.0000 C.3     1  UNL1        0.0055
     49 C           7.7811    1.4888    0.0000 C.ar    1  UNL1        0.1297
     50 C           2.1237   -0.3614    0.0000 C.3     1  UNL1       -0.0465
     51 C           5.8792   -4.3022    0.0000 C.3     1  UNL1        0.0817
     52 C          12.7843    4.3022    0.0000 C.3     1  UNL1        0.0820
     53 C           6.9620    3.0150    0.0000 C.3     1  UNL1        0.0788
     54 H          12.3101   -0.3647    0.0000 H       1  UNL1        0.0480
     55 H           4.2819   -2.7670    0.0000 H       1  UNL1        0.0429
     56 H           3.3300   -3.1976    0.0000 H       1  UNL1        0.0354
     57 H           6.0081   -0.9883    0.0000 H       1  UNL1        0.0287
     58 H           6.3467   -0.2144    0.0000 H       1  UNL1        0.0287
     59 H           2.5244   -0.3300    0.0000 H       1  UNL1        0.0302
     60 H           2.0477   -0.9703    0.0000 H       1  UNL1        0.0302
     61 H           5.9777    1.1450    0.0000 H       1  UNL1        0.0428
     62 H           5.2943    1.6415    0.0000 H       1  UNL1        0.0428
     63 H           1.9546   -1.7946    0.0000 H       1  UNL1        0.0272
     64 H           2.2765   -2.5251    0.0000 H       1  UNL1        0.0272
     65 H           9.7103    0.4179    0.0000 H       1  UNL1        0.0290
     66 H           9.5183   -0.4474    0.0000 H       1  UNL1        0.0290
     67 H           3.1906    0.1715    0.0000 H       1  UNL1        0.0473
     68 H           4.2847   -0.3137    0.0000 H       1  UNL1        0.0473
     69 H          14.0082   -0.2150    0.0000 H       1  UNL1        0.0272
     70 H          13.6313    0.4873    0.0000 H       1  UNL1        0.0272
     71 H          13.2426    1.2115    0.0000 H       1  UNL1        0.0322
     72 H          12.8657    1.9138    0.0000 H       1  UNL1        0.0322
     73 H          10.4064   -1.7459    0.0000 H       1  UNL1        0.0427
     74 H          11.2429   -1.9500    0.0000 H       1  UNL1        0.0427
     75 H          12.1355   -1.9271    0.0000 H       1  UNL1        0.0427
     76 H          12.9322   -1.9518    0.0000 H       1  UNL1        0.0427
     77 H          13.9009    1.3390    0.0000 H       1  UNL1        0.0269
     78 H          13.1042    1.3638    0.0000 H       1  UNL1        0.0269
     79 H          13.5661   -1.6116    0.0000 H       1  UNL1        0.0278
     80 H          13.9858   -0.9341    0.0000 H       1  UNL1        0.0278
     81 H           5.8850   -1.8414    0.0000 H       1  UNL1        0.0659
     82 H           8.5274   -0.5574    0.0000 H       1  UNL1        0.0628
     83 H           6.0094    1.3771    0.0000 H       1  UNL1        0.0646
     84 H           2.0000   -1.6201    0.0000 H       1  UNL1        0.0569
     85 H          14.0113   -0.1770    0.0000 H       1  UNL1        0.0230
     86 H          14.8649    0.0235    0.0000 H       1  UNL1        0.0230
     87 H          14.6644    0.8771    0.0000 H       1  UNL1        0.0230
     88 H           8.6240    2.5505    0.0000 H       1  UNL1        0.0673
     89 H          10.8736    2.8608    0.0000 H       1  UNL1        0.0432
     90 H          10.2732    3.4998    0.0000 H       1  UNL1        0.0432
     91 H           9.6342    2.8993    0.0000 H       1  UNL1        0.0432
     92 H           2.6934   -0.1166    0.0000 H       1  UNL1        0.0272
     93 H           1.8790    0.2083    0.0000 H       1  UNL1        0.0272
     94 H           1.5541   -0.6061    0.0000 H       1  UNL1        0.0272
     95 H           5.5206   -4.8080    0.0000 H       1  UNL1        0.0661
     96 H           6.3850   -4.6608    0.0000 H       1  UNL1        0.0661
     97 H           6.2378   -3.7964    0.0000 H       1  UNL1        0.0661
     98 H          13.4040    4.2830    0.0000 H       1  UNL1        0.0661
     99 H          12.8035    4.9219    0.0000 H       1  UNL1        0.0661
    100 H          12.1646    4.3215    0.0000 H       1  UNL1        0.0661
    101 H           7.5818    2.9958    0.0000 H       1  UNL1        0.0660
    102 H           6.9813    3.6347    0.0000 H       1  UNL1        0.0660
    103 H           6.3424    3.0343    0.0000 H       1  UNL1        0.0660
@<TRIPOS>BOND
     1     1    36    1
     2     1    51    1
     3     2    36    2
     4     3    47    1
     5     3    52    1
     6     4    45    2
     7     5    49    1
     8     5    53    1
     9     6    47    2
    10     7    12    1
    11     7    20    1
    12     7    25    1
    13     8    13    1
    14     8    28    1
    15     8    32    1
    16     9    12    1
    17     9    31    2
    18    10    24    1
    19    10    37    1
    20    10    48    1
    21    11    12    1
    22    11    14    1
    23    11    18    1
    24    11    22    1
    25    12    19    1
    26    13    15    1
    27    13    16    1
    28    13    54    1
    29    14    17    1
    30    14    36    1
    31    14    55    1
    32    15    23    1
    33    15    24    1
    34    15    30    1
    35    16    26    1
    36    16    27    1
    37    16    33    1
    38    17    21    1
    39    17    29    1
    40    17    56    1
    41    18    20    1
    42    18    57    1
    43    18    58    1
    44    19    21    1
    45    19    59    1
    46    19    60    1
    47    20    61    1
    48    20    62    1
    49    21    63    1
    50    21    64    1
    51    22    31    1
    52    22    38    2
    53    23    28    1
    54    23    65    1
    55    23    66    1
    56    24    35    2
    57    25    29    1
    58    25    67    1
    59    25    68    1
    60    26    34    1
    61    26    69    1
    62    26    70    1
    63    27    35    1
    64    27    71    1
    65    27    72    1
    66    28    73    1
    67    28    74    1
    68    29    41    2
    69    30    37   ar
    70    30    39   ar
    71    31    40    1
    72    32    34    1
    73    32    75    1
    74    32    76    1
    75    33    44    1
    76    33    77    1
    77    33    78    1
    78    34    79    1
    79    34    80    1
    80    35    47    1
    81    37    46   ar
    82    38    45    1
    83    38    81    1
    84    39    43   ar
    85    39    82    1
    86    40    42    2
    87    40    83    1
    88    41    50    1
    89    41    84    1
    90    42    43    1
    91    42    45    1
    92    43    49   ar
    93    44    85    1
    94    44    86    1
    95    44    87    1
    96    46    49   ar
    97    46    88    1
    98    48    89    1
    99    48    90    1
   100    48    91    1
   101    50    92    1
   102    50    93    1
   103    50    94    1
   104    51    95    1
   105    51    96    1
   106    51    97    1
   107    52    98    1
   108    52    99    1
   109    52   100    1
   110    53   101    1
   111    53   102    1
   112    53   103    1
