@<TRIPOS>MOLECULE
IMPHY012206
 41 43 0 0 0
SMALL
GASTEIGER

@<TRIPOS>ATOM
      1 O           5.2940    0.5736    0.0000 O.3     1  UNL1       -0.4608
      2 O           5.8864   -1.0540    0.0000 O.2     1  UNL1       -0.2501
      3 O           2.4750   -0.4524    0.0000 O.3     1  UNL1       -0.3939
      4 N           7.8060    3.1707    0.0000 N.3     1  UNL1       -0.3103
      5 C           8.5426    2.1881    0.0000 C.3     1  UNL1        0.0113
      6 C           8.2838    1.2221    0.0000 C.3     1  UNL1        0.0113
      7 C           9.9415    1.6792    0.0000 C.3     1  UNL1       -0.0360
      8 C           9.6827    0.7133    0.0000 C.3     1  UNL1       -0.0360
      9 C           6.5094    1.8769    0.0000 C.3     1  UNL1       -0.0002
     10 C           7.0628    0.3565    0.0000 C.3     1  UNL1       -0.0002
     11 C           6.2337    0.9157    0.0000 C.3     1  UNL1        0.1059
     12 C           5.1204   -0.4112    0.0000 C.2     1  UNL1        0.3171
     13 C           4.1807   -0.7532    0.0000 C.3     1  UNL1        0.1044
     14 C           4.0070   -1.7380    0.0000 C.ar    1  UNL1       -0.0315
     15 C           3.4146   -0.1104    0.0000 C.3     1  UNL1        0.0612
     16 C           3.0673   -2.0800    0.0000 C.ar    1  UNL1       -0.0577
     17 C           4.7731   -2.3808    0.0000 C.ar    1  UNL1       -0.0577
     18 C           2.8937   -3.0648    0.0000 C.ar    1  UNL1       -0.0615
     19 C           4.5994   -3.3656    0.0000 C.ar    1  UNL1       -0.0615
     20 C           3.6597   -3.7076    0.0000 C.ar    1  UNL1       -0.0617
     21 H           8.9119    2.6860    0.0000 H       1  UNL1        0.0462
     22 H           8.3666    0.6077    0.0000 H       1  UNL1        0.0462
     23 H          10.5355    1.5015    0.0000 H       1  UNL1        0.0281
     24 H          10.1365    2.2678    0.0000 H       1  UNL1        0.0281
     25 H           9.4878    0.1248    0.0000 H       1  UNL1        0.0281
     26 H          10.2767    0.5355    0.0000 H       1  UNL1        0.0281
     27 H           6.5043    2.4969    0.0000 H       1  UNL1        0.0316
     28 H           5.8950    1.9607    0.0000 H       1  UNL1        0.0316
     29 H           6.6569   -0.1122    0.0000 H       1  UNL1        0.0316
     30 H           7.4794   -0.1027    0.0000 H       1  UNL1        0.0316
     31 H           5.7803    1.3385    0.0000 H       1  UNL1        0.0735
     32 H           7.4960    3.7076    0.0000 H       1  UNL1        0.1225
     33 H           4.2884   -0.1426    0.0000 H       1  UNL1        0.0485
     34 H           3.8896    0.2881    0.0000 H       1  UNL1        0.0568
     35 H           3.1046    0.4265    0.0000 H       1  UNL1        0.0568
     36 H           2.5924   -1.6815    0.0000 H       1  UNL1        0.0621
     37 H           5.3557   -2.1687    0.0000 H       1  UNL1        0.0621
     38 H           2.0000   -0.0539    0.0000 H       1  UNL1        0.2094
     39 H           2.3111   -3.2769    0.0000 H       1  UNL1        0.0618
     40 H           5.0744   -3.7641    0.0000 H       1  UNL1        0.0618
     41 H           3.5521   -4.3182    0.0000 H       1  UNL1        0.0618
@<TRIPOS>BOND
     1     1    11    1
     2     1    12    1
     3     2    12    2
     4     3    15    1
     5     3    38    1
     6     4     5    1
     7     4     6    1
     8     4    32    1
     9     5     7    1
    10     5     9    1
    11     5    21    1
    12     6     8    1
    13     6    10    1
    14     6    22    1
    15     7     8    1
    16     7    23    1
    17     7    24    1
    18     8    25    1
    19     8    26    1
    20     9    11    1
    21     9    27    1
    22     9    28    1
    23    10    11    1
    24    10    29    1
    25    10    30    1
    26    11    31    1
    27    12    13    1
    28    13    14    1
    29    13    15    1
    30    13    33    1
    31    14    16   ar
    32    14    17   ar
    33    15    34    1
    34    15    35    1
    35    16    18   ar
    36    16    36    1
    37    17    19   ar
    38    17    37    1
    39    18    20   ar
    40    18    39    1
    41    19    20   ar
    42    19    40    1
    43    20    41    1
