@<TRIPOS>MOLECULE
IMPHY015970
 24 24 0 0 0
SMALL
GASTEIGER

@<TRIPOS>ATOM
      1 O           4.5981    2.2500    0.0000 O.2     1  UNL1       -0.3007
      2 C           3.7320    0.7500    0.0000 C.3     1  UNL1        0.0208
      3 C           2.8660    0.2500    0.0000 C.3     1  UNL1       -0.0162
      4 C           4.5981    0.2500    0.0000 C.3     1  UNL1       -0.0396
      5 C           4.5981   -0.7500    0.0000 C.3     1  UNL1       -0.0314
      6 C           3.7320   -1.2500    0.0000 C.2     1  UNL1       -0.0762
      7 C           2.8660   -0.7500    0.0000 C.2     1  UNL1       -0.0815
      8 C           2.0000    0.7500    0.0000 C.3     1  UNL1       -0.0583
      9 C           3.7320    1.7500    0.0000 C.2     1  UNL1        0.1239
     10 C           3.7320   -2.2500    0.0000 C.3     1  UNL1       -0.0438
     11 H           4.2690    1.0600    0.0000 H       1  UNL1        0.0380
     12 H           2.8660    0.8700    0.0000 H       1  UNL1        0.0347
     13 H           5.2087    0.1423    0.0000 H       1  UNL1        0.0275
     14 H           4.8101    0.8326    0.0000 H       1  UNL1        0.0275
     15 H           4.8101   -1.3326    0.0000 H       1  UNL1        0.0310
     16 H           5.2087   -0.6423    0.0000 H       1  UNL1        0.0310
     17 H           2.3291   -1.0600    0.0000 H       1  UNL1        0.0574
     18 H           2.3100    1.2869    0.0000 H       1  UNL1        0.0236
     19 H           1.4631    1.0600    0.0000 H       1  UNL1        0.0236
     20 H           1.6900    0.2131    0.0000 H       1  UNL1        0.0236
     21 H           3.1951    2.0600    0.0000 H       1  UNL1        0.1029
     22 H           3.1120   -2.2500    0.0000 H       1  UNL1        0.0274
     23 H           3.7320   -2.8700    0.0000 H       1  UNL1        0.0274
     24 H           4.3520   -2.2500    0.0000 H       1  UNL1        0.0274
@<TRIPOS>BOND
     1     1     9    2
     2     2     3    1
     3     2     4    1
     4     2     9    1
     5     2    11    1
     6     3     7    1
     7     3     8    1
     8     3    12    1
     9     4     5    1
    10     4    13    1
    11     4    14    1
    12     5     6    1
    13     5    15    1
    14     5    16    1
    15     6     7    2
    16     6    10    1
    17     7    17    1
    18     8    18    1
    19     8    19    1
    20     8    20    1
    21     9    21    1
    22    10    22    1
    23    10    23    1
    24    10    24    1
