@<TRIPOS>MOLECULE
IMPHY010770
 38 43 0 0 0
SMALL
GASTEIGER

@<TRIPOS>ATOM
      1 N          14.5324   -5.0927    0.0000 N.3     1  UNL1       -0.2642
      2 C          14.5324   -3.8076    0.0000 C.3     1  UNL1        0.0775
      3 C          13.4218   -3.1730    0.0000 C.3     1  UNL1        0.0435
      4 C          12.3113   -3.8076    0.0000 C.ar    1  UNL1       -0.0200
      5 C          12.3113   -5.0927    0.0000 C.ar    1  UNL1       -0.0059
      6 C          13.4218   -5.7590    0.0000 C.3     1  UNL1        0.0859
      7 C          12.3113   -6.3936    0.0000 C.3     1  UNL1        0.0572
      8 C          12.3113   -7.6787    0.0000 C.3     1  UNL1        0.1392
      9 C          13.4218   -8.3291    0.0000 C.2     1  UNL1        0.0026
     10 C          14.5324   -7.6787    0.0000 C.2     1  UNL1       -0.0052
     11 C          14.5324   -6.3936    0.0000 C.2     1  UNL1       -0.0085
     12 C          15.8650   -6.3936    0.0000 C.2     1  UNL1       -0.0115
     13 C          15.8650   -5.0768    0.0000 C.3     1  UNL1        0.0990
     14 C          11.1849   -3.1730    0.0000 C.ar    1  UNL1        0.0365
     15 C          10.0743   -3.8076    0.0000 C.ar    1  UNL1        0.1869
     16 C          10.0743   -5.0927    0.0000 C.ar    1  UNL1        0.2297
     17 C          11.1849   -5.7590    0.0000 C.ar    1  UNL1        0.0422
     18 O          11.1849   -8.3291    0.0000 O.3     1  UNL1       -0.3491
     19 C          10.0743   -7.6787    0.0000 C.3     1  UNL1        0.1745
     20 O           8.9479   -3.1730    0.0000 O.3     1  UNL1       -0.4169
     21 C           7.8373   -3.8076    0.0000 C.2     1  UNL1        0.3723
     22 O           7.8373   -5.0927    0.0000 O.2     1  UNL1       -0.2433
     23 O           8.9479   -5.7590    0.0000 O.3     1  UNL1       -0.2833
     24 C           6.7426   -3.1730    0.0000 C.3     1  UNL1        0.1638
     25 C           5.6321   -3.8076    0.0000 C.3     1  UNL1        0.0948
     26 C           4.5057   -3.1730    0.0000 C.ar    1  UNL1        0.0047
     27 C           4.5057   -1.8721    0.0000 C.ar    1  UNL1        0.0948
     28 N           3.3793   -1.2216    0.0000 N.ar    1  UNL1       -0.2442
     29 C           2.2528   -1.8721    0.0000 C.ar    1  UNL1        0.0810
     30 C           1.1264   -1.2216    0.0000 C.ar    1  UNL1        0.0191
     31 C           0.0000   -1.8721    0.0000 C.ar    1  UNL1        0.0015
     32 C           0.0000   -3.1730    0.0000 C.ar    1  UNL1        0.0001
     33 C           1.1264   -3.8076    0.0000 C.ar    1  UNL1        0.0012
     34 C           2.2528   -3.1730    0.0000 C.ar    1  UNL1        0.0154
     35 N           6.7426   -1.3009    0.0000 N.4     1  UNL1        0.3146
     36 C           8.0594   -1.2851    0.0000 C.3     1  UNL1        0.1714
     37 C           6.7426    0.0000    0.0000 C.3     1  UNL1        0.1714
     38 C           5.4417   -1.3009    0.0000 C.3     1  UNL1        0.1714
@<TRIPOS>UNITY_ATOM_ATTR
35 1
charge 1
@<TRIPOS>BOND
     1     1     6    1
     2     1     2    1
     3     1    13    1
     4     2     3    1
     5     3     4    1
     6     4    14   ar
     7     4     5   ar
     8     5     6    1
     9     5    17   ar
    10     6    11    1
    11     6     7    1
    12     7     8    1
    13     8     9    1
    14     8    18    1
    15     9    10    2
    16    10    11    1
    17    11    12    2
    18    12    13    1
    19    14    15   ar
    20    15    16   ar
    21    15    20    1
    22    16    17   ar
    23    16    23    1
    24    18    19    1
    25    20    21    1
    26    21    22    2
    27    21    24    1
    28    24    35    1
    29    24    25    1
    30    25    26    1
    31    26    34   ar
    32    26    27   ar
    33    27    28   ar
    34    28    29   ar
    35    29    34   ar
    36    29    30   ar
    37    30    31   ar
    38    31    32   ar
    39    32    33   ar
    40    33    34   ar
    41    35    36    1
    42    35    37    1
    43    35    38    1
