@<TRIPOS>MOLECULE
IMPHY012325
 105 111 0 0 0
SMALL
GASTEIGER

@<TRIPOS>ATOM
      1 O           7.7662    3.1674    0.0000 O.3     1  UNL1       -0.3877
      2 O           6.0010   -2.0361    0.0000 O.3     1  UNL1       -0.3454
      3 O           4.1621    6.6811    0.0000 O.3     1  UNL1       -0.4571
      4 O           4.2690   -2.0361    0.0000 O.3     1  UNL1       -0.3431
      5 O           4.7972    8.3461    0.0000 O.2     1  UNL1       -0.2456
      6 O           6.0010   -4.0361    0.0000 O.3     1  UNL1       -0.3378
      7 O           4.2690   -5.0361    0.0000 O.3     1  UNL1       -0.3744
      8 O           2.5369   -4.0361    0.0000 O.3     1  UNL1       -0.3866
      9 O           5.1350   -5.5361    0.0000 O.3     1  UNL1       -0.3405
     10 O           7.7331   -5.0361    0.0000 O.3     1  UNL1       -0.3841
     11 O           7.7331   -7.0361    0.0000 O.3     1  UNL1       -0.3864
     12 O           6.0010   -8.0361    0.0000 O.3     1  UNL1       -0.3865
     13 O           3.4030   -6.5361    0.0000 O.3     1  UNL1       -0.3924
     14 C           6.8982    3.6641    0.0000 C.3     1  UNL1        0.0751
     15 C           6.9021    2.6641    0.0000 C.3     1  UNL1       -0.0083
     16 C           6.0380    2.1608    0.0000 C.3     1  UNL1       -0.0299
     17 C           6.0303    4.1608    0.0000 C.3     1  UNL1        0.0036
     18 C           6.0260    1.1192    0.0000 C.3     1  UNL1       -0.0259
     19 C           6.9260    0.5949    0.0000 C.3     1  UNL1       -0.0330
     20 C           5.1701    2.6574    0.0000 C.3     1  UNL1       -0.0488
     21 C           5.1662    3.6574    0.0000 C.3     1  UNL1       -0.0442
     22 C           6.2358    5.1334    0.0000 C.3     1  UNL1       -0.0081
     23 C           7.8140    2.1608    0.0000 C.3     1  UNL1       -0.0470
     24 C           7.6327    4.3340    0.0000 C.3     1  UNL1       -0.0226
     25 C           7.8261    1.1192    0.0000 C.3     1  UNL1       -0.0493
     26 C           7.2241    5.2402    0.0000 C.3     1  UNL1       -0.0432
     27 C           5.0761    0.5949    0.0000 C.3     1  UNL1       -0.0448
     28 C           6.9386   -0.4900    0.0000 C.3     1  UNL1       -0.0232
     29 C           5.1624    4.6574    0.0000 C.3     1  UNL1       -0.0564
     30 C           5.1619    1.6225    0.0000 C.3     1  UNL1       -0.0590
     31 C           5.0635   -0.4900    0.0000 C.3     1  UNL1       -0.0260
     32 C           6.0010   -1.0361    0.0000 C.3     1  UNL1        0.0621
     33 C           5.5650    5.8751    0.0000 C.2     1  UNL1       -0.0222
     34 C           4.5708    5.7684    0.0000 C.3     1  UNL1        0.1147
     35 C           5.7709    6.8537    0.0000 C.2     1  UNL1        0.0252
     36 C           5.1350   -2.5361    0.0000 C.3     1  UNL1        0.1885
     37 C           4.9038    7.3518    0.0000 C.2     1  UNL1        0.3323
     38 C           5.1350   -3.5361    0.0000 C.3     1  UNL1        0.1409
     39 C           4.2690   -4.0361    0.0000 C.3     1  UNL1        0.1174
     40 C           3.4030   -2.5361    0.0000 C.3     1  UNL1        0.0873
     41 C           3.4030   -3.5361    0.0000 C.3     1  UNL1        0.1097
     42 C           2.5369   -2.0361    0.0000 C.3     1  UNL1       -0.0361
     43 C           6.0010   -5.0361    0.0000 C.3     1  UNL1        0.1885
     44 C           6.8671   -5.5361    0.0000 C.3     1  UNL1        0.1341
     45 C           3.4030   -5.5361    0.0000 C.3     1  UNL1        0.0370
     46 C           6.8671   -6.5361    0.0000 C.3     1  UNL1        0.1141
     47 C           5.1350   -6.5361    0.0000 C.3     1  UNL1        0.1130
     48 C           6.0010   -7.0361    0.0000 C.3     1  UNL1        0.1119
     49 C           4.2690   -7.0361    0.0000 C.3     1  UNL1        0.0730
     50 H           7.4354    2.9803    0.0000 H       1  UNL1        0.0331
     51 H           6.5737    1.8487    0.0000 H       1  UNL1        0.0310
     52 H           7.4653    0.2891    0.0000 H       1  UNL1        0.0307
     53 H           4.5591    2.7627    0.0000 H       1  UNL1        0.0268
     54 H           4.9602    2.0740    0.0000 H       1  UNL1        0.0268
     55 H           4.9519    4.2392    0.0000 H       1  UNL1        0.0272
     56 H           4.5560    3.5474    0.0000 H       1  UNL1        0.0272
     57 H           6.4565    5.7128    0.0000 H       1  UNL1        0.0353
     58 H           8.4261    2.0617    0.0000 H       1  UNL1        0.0269
     59 H           8.0163    2.7468    0.0000 H       1  UNL1        0.0269
     60 H           8.0000    3.8346    0.0000 H       1  UNL1        0.0293
     61 H           8.1680    4.6468    0.0000 H       1  UNL1        0.0293
     62 H           8.0419    0.5380    0.0000 H       1  UNL1        0.0268
     63 H           8.4357    1.2324    0.0000 H       1  UNL1        0.0268
     64 H           7.8129    5.4343    0.0000 H       1  UNL1        0.0272
     65 H           7.0930    5.8462    0.0000 H       1  UNL1        0.0272
     66 H           4.8738    1.1810    0.0000 H       1  UNL1        0.0271
     67 H           4.4640    0.4959    0.0000 H       1  UNL1        0.0271
     68 H           7.1544   -1.0712    0.0000 H       1  UNL1        0.0293
     69 H           7.5482   -0.3769    0.0000 H       1  UNL1        0.0293
     70 H           5.4703    5.1955    0.0000 H       1  UNL1        0.0236
     71 H           4.6242    4.9653    0.0000 H       1  UNL1        0.0236
     72 H           4.8544    4.1193    0.0000 H       1  UNL1        0.0236
     73 H           5.4739    2.1583    0.0000 H       1  UNL1        0.0235
     74 H           4.6261    1.9346    0.0000 H       1  UNL1        0.0235
     75 H           4.8498    1.0868    0.0000 H       1  UNL1        0.0235
     76 H           4.4539   -0.3769    0.0000 H       1  UNL1        0.0290
     77 H           4.8477   -1.0712    0.0000 H       1  UNL1        0.0290
     78 H           6.5386   -1.3451    0.0000 H       1  UNL1        0.0597
     79 H           8.3019    3.4795    0.0000 H       1  UNL1        0.2102
     80 H           3.9815    5.5756    0.0000 H       1  UNL1        0.0746
     81 H           4.7009    5.1623    0.0000 H       1  UNL1        0.0746
     82 H           6.3367    7.1070    0.0000 H       1  UNL1        0.0689
     83 H           5.1350   -1.9161    0.0000 H       1  UNL1        0.0938
     84 H           5.1350   -4.1561    0.0000 H       1  UNL1        0.0675
     85 H           3.7320   -4.3461    0.0000 H       1  UNL1        0.0650
     86 H           3.4030   -1.9161    0.0000 H       1  UNL1        0.0621
     87 H           3.4030   -4.1561    0.0000 H       1  UNL1        0.0646
     88 H           2.8469   -1.4992    0.0000 H       1  UNL1        0.0255
     89 H           2.0000   -1.7261    0.0000 H       1  UNL1        0.0255
     90 H           2.2269   -2.5731    0.0000 H       1  UNL1        0.0255
     91 H           6.5380   -4.7261    0.0000 H       1  UNL1        0.0938
     92 H           2.0000   -3.7261    0.0000 H       1  UNL1        0.2100
     93 H           7.4040   -5.8461    0.0000 H       1  UNL1        0.0671
     94 H           3.0930   -4.9992    0.0000 H       1  UNL1        0.0524
     95 H           2.8660   -5.8461    0.0000 H       1  UNL1        0.0524
     96 H           3.7130   -6.0731    0.0000 H       1  UNL1        0.0524
     97 H           6.8671   -7.1561    0.0000 H       1  UNL1        0.0648
     98 H           4.5981   -6.2261    0.0000 H       1  UNL1        0.0647
     99 H           6.5380   -7.3461    0.0000 H       1  UNL1        0.0647
    100 H           8.2700   -5.3461    0.0000 H       1  UNL1        0.2101
    101 H           3.8705   -7.5111    0.0000 H       1  UNL1        0.0584
    102 H           4.6675   -7.5111    0.0000 H       1  UNL1        0.0584
    103 H           7.7331   -7.6561    0.0000 H       1  UNL1        0.2100
    104 H           5.4641   -8.3461    0.0000 H       1  UNL1        0.2100
    105 H           2.8660   -6.8461    0.0000 H       1  UNL1        0.2095
@<TRIPOS>BOND
     1     1    14    1
     2     1    79    1
     3     2    32    1
     4     2    36    1
     5     3    34    1
     6     3    37    1
     7     4    36    1
     8     4    40    1
     9     5    37    2
    10     6    38    1
    11     6    43    1
    12     7    39    1
    13     7    45    1
    14     8    41    1
    15     8    92    1
    16     9    43    1
    17     9    47    1
    18    10    44    1
    19    10   100    1
    20    11    46    1
    21    11   103    1
    22    12    48    1
    23    12   104    1
    24    13    49    1
    25    13   105    1
    26    14    15    1
    27    14    17    1
    28    14    24    1
    29    15    16    1
    30    15    23    1
    31    15    50    1
    32    16    18    1
    33    16    20    1
    34    16    51    1
    35    17    21    1
    36    17    22    1
    37    17    29    1
    38    18    19    1
    39    18    27    1
    40    18    30    1
    41    19    25    1
    42    19    28    1
    43    19    52    1
    44    20    21    1
    45    20    53    1
    46    20    54    1
    47    21    55    1
    48    21    56    1
    49    22    26    1
    50    22    33    1
    51    22    57    1
    52    23    25    1
    53    23    58    1
    54    23    59    1
    55    24    26    1
    56    24    60    1
    57    24    61    1
    58    25    62    1
    59    25    63    1
    60    26    64    1
    61    26    65    1
    62    27    31    1
    63    27    66    1
    64    27    67    1
    65    28    32    1
    66    28    68    1
    67    28    69    1
    68    29    70    1
    69    29    71    1
    70    29    72    1
    71    30    73    1
    72    30    74    1
    73    30    75    1
    74    31    32    1
    75    31    76    1
    76    31    77    1
    77    32    78    1
    78    33    34    1
    79    33    35    2
    80    34    80    1
    81    34    81    1
    82    35    37    1
    83    35    82    1
    84    36    38    1
    85    36    83    1
    86    38    39    1
    87    38    84    1
    88    39    41    1
    89    39    85    1
    90    40    41    1
    91    40    42    1
    92    40    86    1
    93    41    87    1
    94    42    88    1
    95    42    89    1
    96    42    90    1
    97    43    44    1
    98    43    91    1
    99    44    46    1
   100    44    93    1
   101    45    94    1
   102    45    95    1
   103    45    96    1
   104    46    48    1
   105    46    97    1
   106    47    48    1
   107    47    49    1
   108    47    98    1
   109    48    99    1
   110    49   101    1
   111    49   102    1
