@<TRIPOS>MOLECULE
IMPHY003437
 31 33 0 0 0
SMALL
GASTEIGER

@<TRIPOS>ATOM
      1 O           6.0682   -0.6154    0.0000 O.2     1  UNL1       -0.1997
      2 O           7.8003    1.3846    0.0000 O.3     1  UNL1       -0.4995
      3 O           4.3198    2.4192    0.0000 O.3     1  UNL1       -0.5057
      4 O           2.5381   -0.6395    0.0000 O.3     1  UNL1       -0.5063
      5 O          10.3984   -2.1154    0.0000 O.3     1  UNL1       -0.5068
      6 C           5.2022    0.8846    0.0000 C.ar    1  UNL1        0.1241
      7 C           5.2022   -0.1154    0.0000 C.ar    1  UNL1        0.3708
      8 C           6.9343   -0.1154    0.0000 C.ar    1  UNL1        0.4042
      9 C           7.8003   -0.6154    0.0000 C.ar    1  UNL1        0.0830
     10 C           6.0682    1.3846    0.0000 C.ar    1  UNL1        0.0090
     11 C           6.9343    0.8846    0.0000 C.ar    1  UNL1        0.2238
     12 C           4.3083    1.4193    0.0000 C.ar    1  UNL1        0.1366
     13 C           4.3083   -0.6501    0.0000 C.ar    1  UNL1        0.0847
     14 C           3.4022   -0.1362    0.0000 C.ar    1  UNL1        0.1293
     15 C           3.4022    0.9054    0.0000 C.ar    1  UNL1        0.0225
     16 C           7.8003   -1.6154    0.0000 C.ar    1  UNL1       -0.0420
     17 C           8.6663   -0.1154    0.0000 C.ar    1  UNL1       -0.0420
     18 C           8.6663   -2.1154    0.0000 C.ar    1  UNL1       -0.0193
     19 C           9.5323   -0.6154    0.0000 C.ar    1  UNL1       -0.0193
     20 C           9.5323   -1.6154    0.0000 C.ar    1  UNL1        0.1169
     21 H           6.0682    2.0046    0.0000 H       1  UNL1        0.0667
     22 H           4.3154   -1.2700    0.0000 H       1  UNL1        0.0749
     23 H           2.8665    1.2175    0.0000 H       1  UNL1        0.0691
     24 H           7.2634   -1.9254    0.0000 H       1  UNL1        0.0628
     25 H           8.6663    0.5046    0.0000 H       1  UNL1        0.0628
     26 H           8.6663   -2.7354    0.0000 H       1  UNL1        0.0654
     27 H          10.0693   -0.3054    0.0000 H       1  UNL1        0.0654
     28 H           7.8003    2.0046    0.0000 H       1  UNL1        0.2925
     29 H           3.7865    2.7354    0.0000 H       1  UNL1        0.2922
     30 H           2.0000   -0.3316    0.0000 H       1  UNL1        0.2921
     31 H          10.3984   -2.7354    0.0000 H       1  UNL1        0.2921
@<TRIPOS>UNITY_ATOM_ATTR
1 1
charge 1
@<TRIPOS>BOND
     1     1     7   ar
     2     1     8   ar
     3     2    11    1
     4     2    28    1
     5     3    12    1
     6     3    29    1
     7     4    14    1
     8     4    30    1
     9     5    20    1
    10     5    31    1
    11     6     7   ar
    12     6    10   ar
    13     6    12   ar
    14     7    13   ar
    15     8     9    1
    16     8    11   ar
    17     9    16   ar
    18     9    17   ar
    19    10    11   ar
    20    10    21    1
    21    12    15   ar
    22    13    14   ar
    23    13    22    1
    24    14    15   ar
    25    15    23    1
    26    16    18   ar
    27    16    24    1
    28    17    19   ar
    29    17    25    1
    30    18    20   ar
    31    18    26    1
    32    19    20   ar
    33    19    27    1
