@<TRIPOS>MOLECULE
IMPHY010048
 37 40 0 0 0
SMALL
GASTEIGER

@<TRIPOS>ATOM
      1 O           4.2864   -2.4065    0.0000 O.3     1  UNL1       -0.4814
      2 O           2.5405    0.7508    0.0000 O.3     1  UNL1       -0.5059
      3 O           3.4446    2.2477    0.0000 O.2     1  UNL1       -0.2864
      4 N           6.0427    0.7477    0.0000 N.ar    1  UNL1       -0.3533
      5 C           5.2260   -2.9490    0.0000 C.3     1  UNL1        0.1235
      6 C           5.1928   -0.7938    0.0000 C.ar    1  UNL1        0.0407
      7 C           5.1767    0.2477    0.0000 C.ar    1  UNL1        0.0649
      8 C           4.2947   -1.3216    0.0000 C.ar    1  UNL1        0.1343
      9 C           4.3107    0.7477    0.0000 C.ar    1  UNL1        0.0877
     10 C           6.1614   -2.3993    0.0000 C.2     1  UNL1       -0.0408
     11 C           6.1447   -1.3144    0.0000 C.2     1  UNL1       -0.0493
     12 C           5.7293   -3.8131    0.0000 C.3     1  UNL1       -0.0215
     13 C           4.7293   -3.8170    0.0000 C.3     1  UNL1       -0.0215
     14 C           3.3926   -0.8007    0.0000 C.ar    1  UNL1        0.0230
     15 C           3.4007    0.2409    0.0000 C.ar    1  UNL1        0.1332
     16 C           6.0427    1.7477    0.0000 C.ar    1  UNL1        0.0506
     17 C           5.1767    2.2477    0.0000 C.ar    1  UNL1        0.0457
     18 C           4.3107    1.7477    0.0000 C.ar    1  UNL1        0.2006
     19 C           6.9527    2.2546    0.0000 C.ar    1  UNL1       -0.0377
     20 C           5.1606    3.2892    0.0000 C.ar    1  UNL1       -0.0489
     21 C           6.9608    3.2962    0.0000 C.ar    1  UNL1       -0.0598
     22 C           6.0587    3.8170    0.0000 C.ar    1  UNL1       -0.0610
     23 H           6.7019   -2.7031    0.0000 H       1  UNL1        0.0611
     24 H           6.6756   -0.9941    0.0000 H       1  UNL1        0.0623
     25 H           5.1936   -4.1252    0.0000 H       1  UNL1        0.0271
     26 H           6.0414   -4.3488    0.0000 H       1  UNL1        0.0271
     27 H           4.1912   -3.5090    0.0000 H       1  UNL1        0.0271
     28 H           4.4214   -4.3551    0.0000 H       1  UNL1        0.0271
     29 H           5.2675   -4.1249    0.0000 H       1  UNL1        0.0271
     30 H           6.2651   -3.5010    0.0000 H       1  UNL1        0.0271
     31 H           6.5797    0.4377    0.0000 H       1  UNL1        0.1659
     32 H           2.8545   -1.1087    0.0000 H       1  UNL1        0.0691
     33 H           7.4860    1.9384    0.0000 H       1  UNL1        0.0638
     34 H           4.6202    3.5930    0.0000 H       1  UNL1        0.0625
     35 H           7.4989    3.6041    0.0000 H       1  UNL1        0.0618
     36 H           6.0563    4.4370    0.0000 H       1  UNL1        0.0618
     37 H           2.0000    0.4471    0.0000 H       1  UNL1        0.2922
@<TRIPOS>BOND
     1     1     5    1
     2     1     8    1
     3     2    15    1
     4     2    37    1
     5     3    18    2
     6     4     7   ar
     7     4    16   ar
     8     4    31    1
     9     5    10    1
    10     5    12    1
    11     5    13    1
    12     6     7   ar
    13     6     8   ar
    14     6    11    1
    15     7     9   ar
    16     8    14   ar
    17     9    15   ar
    18     9    18   ar
    19    10    11    2
    20    10    23    1
    21    11    24    1
    22    12    25    1
    23    12    26    1
    24    12    30    1
    25    13    27    1
    26    13    28    1
    27    13    29    1
    28    14    15   ar
    29    14    32    1
    30    16    17   ar
    31    16    19   ar
    32    17    18   ar
    33    17    20   ar
    34    19    21   ar
    35    19    33    1
    36    20    22   ar
    37    20    34    1
    38    21    22   ar
    39    21    35    1
    40    22    36    1
