@<TRIPOS>MOLECULE
IMPHY005712
 79 82 0 0 0
SMALL
GASTEIGER

@<TRIPOS>ATOM
      1 O           7.9506   -3.3623    0.0000 O.3     1  UNL1       -0.3875
      2 O           2.5357   -3.3831    0.0000 O.3     1  UNL1       -0.3915
      3 C           7.9288   -0.3308    0.0000 C.3     1  UNL1       -0.0255
      4 C           7.9288   -1.3308    0.0000 C.3     1  UNL1       -0.0296
      5 C           7.0628   -1.8308    0.0000 C.3     1  UNL1       -0.0044
      6 C           6.1968   -1.3308    0.0000 C.3     1  UNL1       -0.0262
      7 C           8.8750   -0.0261    0.0000 C.3     1  UNL1       -0.0294
      8 C           7.0628    0.1692    0.0000 C.3     1  UNL1       -0.0468
      9 C           5.2868   -1.8376    0.0000 C.3     1  UNL1       -0.0077
     10 C           8.8750   -1.6355    0.0000 C.3     1  UNL1       -0.0491
     11 C           6.1968   -0.3308    0.0000 C.3     1  UNL1       -0.0486
     12 C           9.4586   -0.8308    0.0000 C.3     1  UNL1       -0.0489
     13 C           7.0789   -2.8723    0.0000 C.3     1  UNL1        0.0770
     14 C           7.9288    0.6692    0.0000 C.3     1  UNL1       -0.0590
     15 C           5.2787   -2.8792    0.0000 C.2     1  UNL1       -0.0624
     16 C           9.1857    0.9244    0.0000 C.3     1  UNL1       -0.0224
     17 C           4.3599   -1.2736    0.0000 C.3     1  UNL1       -0.0413
     18 C           6.1808   -3.4001    0.0000 C.2     1  UNL1       -0.0558
     19 C           5.2945   -0.8377    0.0000 C.3     1  UNL1       -0.0556
     20 C           4.3433   -3.4290    0.0000 C.3     1  UNL1       -0.0050
     21 C           3.4120   -1.8015    0.0000 C.3     1  UNL1       -0.0258
     22 C           3.4037   -2.8865    0.0000 C.3     1  UNL1        0.0590
     23 C           8.5179    1.6688    0.0000 C.3     1  UNL1       -0.0587
     24 C          10.1642    1.1307    0.0000 C.2     1  UNL1       -0.0845
     25 C          10.4749    2.0812    0.0000 C.2     1  UNL1       -0.0843
     26 C          11.4534    2.2874    0.0000 C.3     1  UNL1       -0.0208
     27 C          11.7640    3.2379    0.0000 C.3     1  UNL1       -0.0405
     28 C          12.1212    1.5431    0.0000 C.3     1  UNL1       -0.0494
     29 C          12.7425    3.4441    0.0000 C.3     1  UNL1       -0.0621
     30 C          11.0962    3.9822    0.0000 C.3     1  UNL1       -0.0621
     31 C          13.0997    1.7493    0.0000 C.3     1  UNL1       -0.0647
     32 H           8.0188   -2.1760    0.0000 H       1  UNL1        0.0310
     33 H           7.8022   -2.2501    0.0000 H       1  UNL1        0.0335
     34 H           6.9329   -0.9058    0.0000 H       1  UNL1        0.0313
     35 H           9.7148    0.1058    0.0000 H       1  UNL1        0.0312
     36 H           7.4613    0.6441    0.0000 H       1  UNL1        0.0271
     37 H           6.6643    0.6441    0.0000 H       1  UNL1        0.0271
     38 H           8.6240   -2.2024    0.0000 H       1  UNL1        0.0268
     39 H           9.4124   -1.9448    0.0000 H       1  UNL1        0.0268
     40 H           5.9847    0.2518    0.0000 H       1  UNL1        0.0268
     41 H           5.5862   -0.4385    0.0000 H       1  UNL1        0.0268
     42 H           9.9195   -1.2455    0.0000 H       1  UNL1        0.0268
     43 H           9.9195   -0.4161    0.0000 H       1  UNL1        0.0268
     44 H           7.6116   -2.5551    0.0000 H       1  UNL1        0.0640
     45 H           8.5488    0.6692    0.0000 H       1  UNL1        0.0235
     46 H           7.9288    1.2892    0.0000 H       1  UNL1        0.0235
     47 H           7.3088    0.6692    0.0000 H       1  UNL1        0.0235
     48 H           9.3783    1.5138    0.0000 H       1  UNL1        0.0343
     49 H           4.7681   -0.8069    0.0000 H       1  UNL1        0.0274
     50 H           3.9700   -0.7915    0.0000 H       1  UNL1        0.0274
     51 H           6.1832   -4.0201    0.0000 H       1  UNL1        0.0597
     52 H           5.9145   -0.8425    0.0000 H       1  UNL1        0.0238
     53 H           5.2993   -0.2177    0.0000 H       1  UNL1        0.0238
     54 H           4.6745   -0.8329    0.0000 H       1  UNL1        0.0238
     55 H           3.9460   -3.9050    0.0000 H       1  UNL1        0.0335
     56 H           4.7443   -3.9019    0.0000 H       1  UNL1        0.0335
     57 H           3.2075   -1.2162    0.0000 H       1  UNL1        0.0290
     58 H           2.8004   -1.9029    0.0000 H       1  UNL1        0.0290
     59 H           3.4025   -3.5065    0.0000 H       1  UNL1        0.0596
     60 H           8.9793    2.0828    0.0000 H       1  UNL1        0.0235
     61 H           8.1038    2.1302    0.0000 H       1  UNL1        0.0235
     62 H           8.0564    1.2547    0.0000 H       1  UNL1        0.0235
     63 H          10.5783    0.6692    0.0000 H       1  UNL1        0.0572
     64 H           7.9578   -3.9822    0.0000 H       1  UNL1        0.2102
     65 H          10.0608    2.5426    0.0000 H       1  UNL1        0.0572
     66 H           2.0000   -3.0711    0.0000 H       1  UNL1        0.2098
     67 H          12.3210    1.8259    0.0000 H       1  UNL1        0.0345
     68 H          11.9567    3.8272    0.0000 H       1  UNL1        0.0301
     69 H          11.5949    1.2155    0.0000 H       1  UNL1        0.0268
     70 H          12.3525    0.9678    0.0000 H       1  UNL1        0.0268
     71 H          12.8704    2.8375    0.0000 H       1  UNL1        0.0233
     72 H          13.3492    3.5720    0.0000 H       1  UNL1        0.0233
     73 H          12.6147    4.0508    0.0000 H       1  UNL1        0.0233
     74 H          11.5577    4.3963    0.0000 H       1  UNL1        0.0233
     75 H          10.6821    4.4437    0.0000 H       1  UNL1        0.0233
     76 H          10.6347    3.5682    0.0000 H       1  UNL1        0.0233
     77 H          13.2276    1.1426    0.0000 H       1  UNL1        0.0230
     78 H          13.7064    1.8772    0.0000 H       1  UNL1        0.0230
     79 H          12.9719    2.3560    0.0000 H       1  UNL1        0.0230
@<TRIPOS>BOND
     1    13     1    1
     2     1    64    1
     3    22     2    1
     4     2    66    1
     5     3     4    1
     6     3     7    1
     7     3     8    1
     8     3    14    1
     9     4     5    1
    10     4    10    1
    11     4    32    1
    12     5     6    1
    13     5    13    1
    14     5    33    1
    15     6     9    1
    16     6    11    1
    17     6    34    1
    18     7    12    1
    19     7    16    1
    20     7    35    1
    21     8    11    1
    22     8    36    1
    23     8    37    1
    24     9    15    1
    25     9    17    1
    26     9    19    1
    27    10    12    1
    28    10    38    1
    29    10    39    1
    30    11    40    1
    31    11    41    1
    32    12    42    1
    33    12    43    1
    34    13    18    1
    35    13    44    1
    36    14    45    1
    37    14    46    1
    38    14    47    1
    39    15    18    2
    40    15    20    1
    41    16    23    1
    42    16    24    1
    43    16    48    1
    44    17    21    1
    45    17    49    1
    46    17    50    1
    47    18    51    1
    48    19    52    1
    49    19    53    1
    50    19    54    1
    51    20    22    1
    52    20    55    1
    53    20    56    1
    54    21    22    1
    55    21    57    1
    56    21    58    1
    57    22    59    1
    58    23    60    1
    59    23    61    1
    60    23    62    1
    61    24    25    2
    62    24    63    1
    63    26    25    1
    64    25    65    1
    65    26    27    1
    66    26    28    1
    67    26    67    1
    68    27    29    1
    69    27    30    1
    70    27    68    1
    71    28    31    1
    72    28    69    1
    73    28    70    1
    74    29    71    1
    75    29    72    1
    76    29    73    1
    77    30    74    1
    78    30    75    1
    79    30    76    1
    80    31    77    1
    81    31    78    1
    82    31    79    1
