@<TRIPOS>MOLECULE
IMPHY009400
 68 72 0 0 0
SMALL
GASTEIGER

@<TRIPOS>ATOM
      1 O           7.2346    3.2589    0.0000 O.3     1  UNL1       -0.4908
      2 O           9.0005    4.2967    0.0000 O.3     1  UNL1       -0.4914
      3 O           4.5923   -0.2967    0.0000 O.3     1  UNL1       -0.4515
      4 O           4.5923    1.7516    0.0000 O.3     1  UNL1       -0.4914
      5 O           6.3359   -3.2900    0.0000 O.3     1  UNL1       -0.4913
      6 O           4.6077   -4.2967    0.0000 O.3     1  UNL1       -0.4914
      7 O           2.0000   -1.8067    0.0000 O.2     1  UNL1       -0.2956
      8 N           9.8466   -0.2695    0.0000 N.3     1  UNL1       -0.2978
      9 C           8.9884    0.2274    0.0000 C.3     1  UNL1        0.0403
     10 C           8.9884    1.2274    0.0000 C.ar    1  UNL1       -0.0153
     11 C           8.1224   -0.2726    0.0000 C.3     1  UNL1       -0.0072
     12 C           9.8984    1.7343    0.0000 C.ar    1  UNL1       -0.0372
     13 C          10.7121    0.2147    0.0000 C.3     1  UNL1        0.0032
     14 C           8.1224    1.7274    0.0000 C.ar    1  UNL1        0.0327
     15 C          10.7377    1.2060    0.0000 C.3     1  UNL1       -0.0144
     16 C           7.2564    0.2274    0.0000 C.ar    1  UNL1       -0.0340
     17 C           7.2564    1.2274    0.0000 C.ar    1  UNL1       -0.0070
     18 C           8.1063    2.7689    0.0000 C.ar    1  UNL1        0.1695
     19 C           9.9065    2.7759    0.0000 C.ar    1  UNL1       -0.0127
     20 C           9.8392   -1.2695    0.0000 C.3     1  UNL1       -0.0122
     21 C           9.0044    3.2967    0.0000 C.ar    1  UNL1        0.1624
     22 C           6.3624   -0.3072    0.0000 C.ar    1  UNL1       -0.0119
     23 C           6.3624    1.7621    0.0000 C.ar    1  UNL1       -0.0082
     24 C           5.4564    0.2066    0.0000 C.ar    1  UNL1        0.1701
     25 C           5.4564    1.2482    0.0000 C.ar    1  UNL1        0.1627
     26 C           7.2230    4.2588    0.0000 C.3     1  UNL1        0.0790
     27 C           9.8646    4.8000    0.0000 C.3     1  UNL1        0.0790
     28 C           4.5961   -1.2967    0.0000 C.ar    1  UNL1        0.1425
     29 C           4.5961    2.7516    0.0000 C.3     1  UNL1        0.0790
     30 C           3.7320   -1.8000    0.0000 C.ar    1  UNL1        0.0601
     31 C           5.4641   -1.7934    0.0000 C.ar    1  UNL1        0.0267
     32 C           5.4679   -2.7934    0.0000 C.ar    1  UNL1        0.1650
     33 C           3.7359   -2.8000    0.0000 C.ar    1  UNL1       -0.0026
     34 C           4.6038   -3.2967    0.0000 C.ar    1  UNL1        0.1624
     35 C           2.8641   -1.3034    0.0000 C.2     1  UNL1        0.1538
     36 C           6.3397   -4.2900    0.0000 C.3     1  UNL1        0.0790
     37 C           3.7436   -4.8000    0.0000 C.3     1  UNL1        0.0790
     38 H           8.9879   -0.6226    0.0000 H       1  UNL1        0.0516
     39 H           7.7239   -0.7475    0.0000 H       1  UNL1        0.0332
     40 H           8.5209   -0.7475    0.0000 H       1  UNL1        0.0332
     41 H          10.9139   -0.3716    0.0000 H       1  UNL1        0.0430
     42 H          11.3249    0.3090    0.0000 H       1  UNL1        0.0430
     43 H          11.3448    1.0802    0.0000 H       1  UNL1        0.0326
     44 H          10.9695    1.7811    0.0000 H       1  UNL1        0.0326
     45 H          10.4446    3.0838    0.0000 H       1  UNL1        0.0658
     46 H           9.2193   -1.2649    0.0000 H       1  UNL1        0.0391
     47 H           9.8347   -1.8894    0.0000 H       1  UNL1        0.0391
     48 H          10.4592   -1.2741    0.0000 H       1  UNL1        0.0391
     49 H           6.3696   -0.9272    0.0000 H       1  UNL1        0.0658
     50 H           6.3696    2.3820    0.0000 H       1  UNL1        0.0661
     51 H           7.8430    4.2660    0.0000 H       1  UNL1        0.0660
     52 H           7.2159    4.8788    0.0000 H       1  UNL1        0.0660
     53 H           6.6031    4.2517    0.0000 H       1  UNL1        0.0660
     54 H          10.1767    4.2643    0.0000 H       1  UNL1        0.0660
     55 H          10.4004    5.1121    0.0000 H       1  UNL1        0.0660
     56 H           9.5526    5.3358    0.0000 H       1  UNL1        0.0660
     57 H           5.2161    2.7492    0.0000 H       1  UNL1        0.0660
     58 H           4.5985    3.3716    0.0000 H       1  UNL1        0.0660
     59 H           3.9761    2.7540    0.0000 H       1  UNL1        0.0660
     60 H           5.9998   -1.4813    0.0000 H       1  UNL1        0.0692
     61 H           3.2002   -3.1121    0.0000 H       1  UNL1        0.0663
     62 H           2.8617   -0.6834    0.0000 H       1  UNL1        0.1083
     63 H           5.7197   -4.2924    0.0000 H       1  UNL1        0.0660
     64 H           6.3421   -4.9100    0.0000 H       1  UNL1        0.0660
     65 H           6.9597   -4.2876    0.0000 H       1  UNL1        0.0660
     66 H           3.4315   -4.2643    0.0000 H       1  UNL1        0.0660
     67 H           3.2079   -5.1121    0.0000 H       1  UNL1        0.0660
     68 H           4.0557   -5.3358    0.0000 H       1  UNL1        0.0660
@<TRIPOS>BOND
     1     1    18    1
     2     1    26    1
     3     2    21    1
     4     2    27    1
     5     3    24    1
     6     3    28    1
     7     4    25    1
     8     4    29    1
     9     5    32    1
    10     5    36    1
    11     6    34    1
    12     6    37    1
    13     7    35    2
    14     8     9    1
    15     8    13    1
    16     8    20    1
    17     9    10    1
    18     9    11    1
    19     9    38    1
    20    10    12   ar
    21    10    14   ar
    22    11    16    1
    23    11    39    1
    24    11    40    1
    25    12    15    1
    26    12    19   ar
    27    13    15    1
    28    13    41    1
    29    13    42    1
    30    14    17    1
    31    14    18   ar
    32    15    43    1
    33    15    44    1
    34    16    17   ar
    35    16    22   ar
    36    17    23   ar
    37    18    21   ar
    38    19    21   ar
    39    19    45    1
    40    20    46    1
    41    20    47    1
    42    20    48    1
    43    22    24   ar
    44    22    49    1
    45    23    25   ar
    46    23    50    1
    47    24    25   ar
    48    26    51    1
    49    26    52    1
    50    26    53    1
    51    27    54    1
    52    27    55    1
    53    27    56    1
    54    28    30   ar
    55    28    31   ar
    56    29    57    1
    57    29    58    1
    58    29    59    1
    59    30    33   ar
    60    30    35    1
    61    31    32   ar
    62    31    60    1
    63    32    34   ar
    64    33    34   ar
    65    33    61    1
    66    35    62    1
    67    36    63    1
    68    36    64    1
    69    36    65    1
    70    37    66    1
    71    37    67    1
    72    37    68    1
