@<TRIPOS>MOLECULE
IMPHY005409
 256 269 0 0 0
SMALL
GASTEIGER

@<TRIPOS>ATOM
      1 O          19.8574  -11.0000    0.0000 O.3     1  UNL1       -0.3302
      2 O          20.7235   -6.5000    0.0000 O.3     1  UNL1       -0.3302
      3 O          25.9196   -9.5000    0.0000 O.3     1  UNL1       -0.3302
      4 O          21.5895  -11.0000    0.0000 O.3     1  UNL1       -0.4570
      5 O          19.8574   -8.0000    0.0000 O.3     1  UNL1       -0.4570
      6 O          10.3312  -11.5000    0.0000 O.3     1  UNL1       -0.3302
      7 O          24.1876    3.5000    0.0000 O.3     1  UNL1       -0.3302
      8 O          24.1876   -9.5000    0.0000 O.3     1  UNL1       -0.4515
      9 O          19.8574  -14.0000    0.0000 O.3     1  UNL1       -0.3864
     10 O          18.1254   -5.0000    0.0000 O.3     1  UNL1       -0.3864
     11 O          18.1254  -13.0000    0.0000 O.3     1  UNL1       -0.3864
     12 O          19.8574   -4.0000    0.0000 O.3     1  UNL1       -0.3864
     13 O          21.5895  -13.0000    0.0000 O.3     1  UNL1       -0.3829
     14 O          18.1254   -7.0000    0.0000 O.3     1  UNL1       -0.3829
     15 O          27.6517  -11.5000    0.0000 O.3     1  UNL1       -0.3864
     16 O          25.9196  -12.5000    0.0000 O.3     1  UNL1       -0.3864
     17 O          24.1876  -11.5000    0.0000 O.3     1  UNL1       -0.3829
     18 O           5.1350   -3.5000    0.0000 O.3     1  UNL1       -0.3313
     19 O          20.7235   11.5000    0.0000 O.3     1  UNL1       -0.3313
     20 O          17.2594  -11.5000    0.0000 O.3     1  UNL1       -0.4589
     21 O          21.5895   -4.0000    0.0000 O.3     1  UNL1       -0.4589
     22 O           7.7331  -11.0000    0.0000 O.3     1  UNL1       -0.3864
     23 O          26.7856    4.0000    0.0000 O.3     1  UNL1       -0.3864
     24 O           7.7331  -13.0000    0.0000 O.3     1  UNL1       -0.3864
     25 O          26.7856    2.0000    0.0000 O.3     1  UNL1       -0.3864
     26 O          11.1972  -13.0000    0.0000 O.3     1  UNL1       -0.4608
     27 O          23.3215    2.0000    0.0000 O.3     1  UNL1       -0.4608
     28 O          27.6517   -8.5000    0.0000 O.3     1  UNL1       -0.4616
     29 O           9.4651  -14.0000    0.0000 O.3     1  UNL1       -0.3829
     30 O          25.0536    1.0000    0.0000 O.3     1  UNL1       -0.3829
     31 O           4.2690   -1.0000    0.0000 O.3     1  UNL1       -0.3865
     32 O          19.8574   14.0000    0.0000 O.3     1  UNL1       -0.3865
     33 O           2.5369   -2.0000    0.0000 O.3     1  UNL1       -0.3864
     34 O          18.1254   13.0000    0.0000 O.3     1  UNL1       -0.3864
     35 O           4.2690   -5.0000    0.0000 O.3     1  UNL1       -0.4608
     36 O          19.8574   10.0000    0.0000 O.3     1  UNL1       -0.4608
     37 O           2.5369   -4.0000    0.0000 O.3     1  UNL1       -0.3829
     38 O          18.1254   11.0000    0.0000 O.3     1  UNL1       -0.3829
     39 O           8.5991   -9.5000    0.0000 O.3     1  UNL1       -0.4589
     40 O          24.1876    5.5000    0.0000 O.3     1  UNL1       -0.4589
     41 O          23.3215   -7.0000    0.0000 O.2     1  UNL1       -0.1997
     42 O          19.8574  -10.0000    0.0000 O.3     1  UNL1       -0.5009
     43 O           6.0010   -1.0000    0.0000 O.3     1  UNL1       -0.3924
     44 O          21.5895   14.0000    0.0000 O.3     1  UNL1       -0.3924
     45 O          16.3933  -10.0000    0.0000 O.2     1  UNL1       -0.2456
     46 O          23.3215   -4.0000    0.0000 O.2     1  UNL1       -0.2456
     47 O          28.5177   -7.0000    0.0000 O.2     1  UNL1       -0.2502
     48 O          26.8238   -7.0031    0.0000 O.3     1  UNL1       -0.5057
     49 O           9.4651   -8.0000    0.0000 O.2     1  UNL1       -0.2456
     50 O          25.0536    7.0000    0.0000 O.2     1  UNL1       -0.2456
     51 O          25.0657   -3.9308    0.0000 O.3     1  UNL1       -0.5063
     52 O          30.2497   -7.0000    0.0000 O.3     1  UNL1       -0.4802
     53 O          31.1158   -8.5000    0.0000 O.2     1  UNL1       -0.2504
     54 C          19.8574  -13.0000    0.0000 C.3     1  UNL1        0.1152
     55 C          18.9914   -5.5000    0.0000 C.3     1  UNL1        0.1152
     56 C          18.9914  -12.5000    0.0000 C.3     1  UNL1        0.1130
     57 C          19.8574   -5.0000    0.0000 C.3     1  UNL1        0.1130
     58 C          20.7235  -12.5000    0.0000 C.3     1  UNL1        0.1454
     59 C          18.9914   -6.5000    0.0000 C.3     1  UNL1        0.1454
     60 C          18.9914  -11.5000    0.0000 C.3     1  UNL1        0.1250
     61 C          20.7235   -5.5000    0.0000 C.3     1  UNL1        0.1250
     62 C          26.7856  -11.0000    0.0000 C.3     1  UNL1        0.1130
     63 C          25.9196  -11.5000    0.0000 C.3     1  UNL1        0.1152
     64 C          20.7235  -11.5000    0.0000 C.3     1  UNL1        0.2310
     65 C          19.8574   -7.0000    0.0000 C.3     1  UNL1        0.2310
     66 C          26.7856  -10.0000    0.0000 C.3     1  UNL1        0.1250
     67 C          25.0536  -11.0000    0.0000 C.3     1  UNL1        0.1454
     68 C          25.0536  -10.0000    0.0000 C.3     1  UNL1        0.2313
     69 C           8.5991  -11.5000    0.0000 C.3     1  UNL1        0.1130
     70 C          25.9196    3.5000    0.0000 C.3     1  UNL1        0.1130
     71 C           8.5991  -12.5000    0.0000 C.3     1  UNL1        0.1152
     72 C          25.9196    2.5000    0.0000 C.3     1  UNL1        0.1152
     73 C           9.4651  -11.0000    0.0000 C.3     1  UNL1        0.1250
     74 C          25.0536    4.0000    0.0000 C.3     1  UNL1        0.1250
     75 C          18.1254  -11.0000    0.0000 C.3     1  UNL1        0.1215
     76 C          21.5895   -5.0000    0.0000 C.3     1  UNL1        0.1215
     77 C           9.4651  -13.0000    0.0000 C.3     1  UNL1        0.1454
     78 C          25.0536    2.0000    0.0000 C.3     1  UNL1        0.1454
     79 C          27.6517   -9.5000    0.0000 C.3     1  UNL1        0.1212
     80 C          10.3312  -12.5000    0.0000 C.3     1  UNL1        0.2308
     81 C          24.1876    2.5000    0.0000 C.3     1  UNL1        0.2308
     82 C           4.2690   -2.0000    0.0000 C.3     1  UNL1        0.1120
     83 C          19.8574   13.0000    0.0000 C.3     1  UNL1        0.1120
     84 C           3.4030   -2.5000    0.0000 C.3     1  UNL1        0.1152
     85 C          18.9914   12.5000    0.0000 C.3     1  UNL1        0.1152
     86 C           5.1350   -2.5000    0.0000 C.3     1  UNL1        0.1140
     87 C          20.7235   12.5000    0.0000 C.3     1  UNL1        0.1140
     88 C           3.4030   -3.5000    0.0000 C.3     1  UNL1        0.1454
     89 C          18.9914   11.5000    0.0000 C.3     1  UNL1        0.1454
     90 C           4.2690   -4.0000    0.0000 C.3     1  UNL1        0.2308
     91 C          19.8574   11.0000    0.0000 C.3     1  UNL1        0.2308
     92 C          21.5895  -10.0000    0.0000 C.ar    1  UNL1        0.1697
     93 C          20.7235   -8.5000    0.0000 C.ar    1  UNL1        0.1697
     94 C           9.4651  -10.0000    0.0000 C.3     1  UNL1        0.1215
     95 C          25.0536    5.0000    0.0000 C.3     1  UNL1        0.1215
     96 C          20.7235   -9.5000    0.0000 C.ar    1  UNL1        0.2013
     97 C          22.4555   -8.5000    0.0000 C.ar    1  UNL1        0.0899
     98 C          24.1876   -8.5000    0.0000 C.ar    1  UNL1        0.2288
     99 C          22.4555   -9.5000    0.0000 C.ar    1  UNL1        0.0003
    100 C          21.5895   -8.0000    0.0000 C.ar    1  UNL1        0.0003
    101 C          23.3215   -8.0000    0.0000 C.ar    1  UNL1        0.4047
    102 C           6.0010   -2.0000    0.0000 C.3     1  UNL1        0.0731
    103 C          21.5895   13.0000    0.0000 C.3     1  UNL1        0.0731
    104 C          25.0536   -8.0000    0.0000 C.ar    1  UNL1        0.0093
    105 C          25.0536   -7.0000    0.0000 C.ar    1  UNL1        0.1241
    106 C          24.1876   -6.5000    0.0000 C.ar    1  UNL1        0.3708
    107 C          12.0632  -12.5000    0.0000 C.ar    1  UNL1        0.1240
    108 C          23.3215    1.0000    0.0000 C.ar    1  UNL1        0.1240
    109 C          16.3933  -11.0000    0.0000 C.2     1  UNL1        0.3320
    110 C          22.4555   -3.5000    0.0000 C.2     1  UNL1        0.3320
    111 C          28.5177   -8.0000    0.0000 C.2     1  UNL1        0.3180
    112 C           5.1350   -5.5000    0.0000 C.ar    1  UNL1        0.1240
    113 C          20.7235    9.5000    0.0000 C.ar    1  UNL1        0.1240
    114 C          25.9636   -6.4932    0.0000 C.ar    1  UNL1        0.1366
    115 C          12.9292  -13.0000    0.0000 C.ar    1  UNL1       -0.0193
    116 C          12.0632  -11.5000    0.0000 C.ar    1  UNL1       -0.0193
    117 C          24.1876    0.5000    0.0000 C.ar    1  UNL1       -0.0193
    118 C          22.4555    0.5000    0.0000 C.ar    1  UNL1       -0.0193
    119 C          24.1715   -5.4585    0.0000 C.ar    1  UNL1        0.0847
    120 C           8.5991   -8.5000    0.0000 C.2     1  UNL1        0.3320
    121 C          24.1876    6.5000    0.0000 C.2     1  UNL1        0.3320
    122 C          15.5273  -11.5000    0.0000 C.2     1  UNL1        0.0231
    123 C          22.4555   -2.5000    0.0000 C.2     1  UNL1        0.0231
    124 C          29.3837   -8.5000    0.0000 C.3     1  UNL1        0.1418
    125 C          13.7953  -11.5000    0.0000 C.ar    1  UNL1       -0.0246
    126 C          23.3215   -1.0000    0.0000 C.ar    1  UNL1       -0.0246
    127 C           5.1350   -6.5000    0.0000 C.ar    1  UNL1       -0.0193
    128 C           6.0010   -5.0000    0.0000 C.ar    1  UNL1       -0.0193
    129 C          21.5895   10.0000    0.0000 C.ar    1  UNL1       -0.0193
    130 C          20.7235    8.5000    0.0000 C.ar    1  UNL1       -0.0193
    131 C          25.9716   -5.4516    0.0000 C.ar    1  UNL1        0.0225
    132 C          13.7953  -12.5000    0.0000 C.ar    1  UNL1       -0.0511
    133 C          12.9292  -11.0000    0.0000 C.ar    1  UNL1       -0.0511
    134 C          24.1876   -0.5000    0.0000 C.ar    1  UNL1       -0.0511
    135 C          22.4555   -0.5000    0.0000 C.ar    1  UNL1       -0.0511
    136 C          25.0695   -4.9307    0.0000 C.ar    1  UNL1        0.1293
    137 C          14.6613  -11.0000    0.0000 C.2     1  UNL1       -0.0478
    138 C          23.3215   -2.0000    0.0000 C.2     1  UNL1       -0.0478
    139 C           6.8671   -6.5000    0.0000 C.ar    1  UNL1       -0.0246
    140 C          22.4555    8.5000    0.0000 C.ar    1  UNL1       -0.0246
    141 C           7.7331   -8.0000    0.0000 C.2     1  UNL1        0.0231
    142 C          23.3215    7.0000    0.0000 C.2     1  UNL1        0.0231
    143 C           6.0010   -7.0000    0.0000 C.ar    1  UNL1       -0.0511
    144 C           6.8671   -5.5000    0.0000 C.ar    1  UNL1       -0.0511
    145 C          22.4555    9.5000    0.0000 C.ar    1  UNL1       -0.0511
    146 C          21.5895    8.0000    0.0000 C.ar    1  UNL1       -0.0511
    147 C           7.7331   -7.0000    0.0000 C.2     1  UNL1       -0.0478
    148 C          23.3215    8.0000    0.0000 C.2     1  UNL1       -0.0478
    149 C          30.2497   -8.0000    0.0000 C.2     1  UNL1        0.3155
    150 H          19.3205  -13.3100    0.0000 H       1  UNL1        0.0648
    151 H          18.4545   -5.8100    0.0000 H       1  UNL1        0.0648
    152 H          18.4545  -12.1900    0.0000 H       1  UNL1        0.0647
    153 H          19.3205   -4.6900    0.0000 H       1  UNL1        0.0647
    154 H          20.7235  -13.1200    0.0000 H       1  UNL1        0.0683
    155 H          19.9392   -6.8100    0.0000 H       1  UNL1        0.0683
    156 H          18.9914  -10.8800    0.0000 H       1  UNL1        0.0658
    157 H          21.2604   -5.8100    0.0000 H       1  UNL1        0.0658
    158 H          27.3226  -10.6900    0.0000 H       1  UNL1        0.0647
    159 H          26.4566  -11.8100    0.0000 H       1  UNL1        0.0648
    160 H          20.7235  -10.8800    0.0000 H       1  UNL1        0.1084
    161 H          19.3205   -7.3100    0.0000 H       1  UNL1        0.1084
    162 H          26.7856   -9.3800    0.0000 H       1  UNL1        0.0658
    163 H          25.0536  -11.6200    0.0000 H       1  UNL1        0.0683
    164 H          25.0536   -9.3800    0.0000 H       1  UNL1        0.1084
    165 H           8.0622  -11.8100    0.0000 H       1  UNL1        0.0647
    166 H          26.4566    3.1900    0.0000 H       1  UNL1        0.0647
    167 H           9.5469  -12.8100    0.0000 H       1  UNL1        0.0648
    168 H          25.9196    1.8800    0.0000 H       1  UNL1        0.0648
    169 H          10.0021  -10.6900    0.0000 H       1  UNL1        0.0658
    170 H          24.5167    4.3100    0.0000 H       1  UNL1        0.0658
    171 H          18.5239  -10.5251    0.0000 H       1  UNL1        0.0725
    172 H          17.7269  -10.5251    0.0000 H       1  UNL1        0.0725
    173 H          21.8015   -5.5826    0.0000 H       1  UNL1        0.0725
    174 H          22.2001   -4.8923    0.0000 H       1  UNL1        0.0725
    175 H           8.9282  -13.3100    0.0000 H       1  UNL1        0.0683
    176 H          24.5167    1.6900    0.0000 H       1  UNL1        0.0683
    177 H          27.8637  -10.0826    0.0000 H       1  UNL1        0.0724
    178 H          28.2623   -9.3923    0.0000 H       1  UNL1        0.0724
    179 H          10.3312  -13.1200    0.0000 H       1  UNL1        0.1084
    180 H          23.6506    2.8100    0.0000 H       1  UNL1        0.1084
    181 H           4.8059   -1.6900    0.0000 H       1  UNL1        0.0647
    182 H          19.3205   13.3100    0.0000 H       1  UNL1        0.0647
    183 H           3.4030   -1.8800    0.0000 H       1  UNL1        0.0648
    184 H          18.4545   12.1900    0.0000 H       1  UNL1        0.0648
    185 H           5.6720   -2.8100    0.0000 H       1  UNL1        0.0647
    186 H          21.2604   12.1900    0.0000 H       1  UNL1        0.0647
    187 H           3.4030   -4.1200    0.0000 H       1  UNL1        0.0683
    188 H          19.9392   11.1900    0.0000 H       1  UNL1        0.0683
    189 H           4.8059   -4.3100    0.0000 H       1  UNL1        0.1084
    190 H          19.3205   10.6900    0.0000 H       1  UNL1        0.1084
    191 H          20.3944  -14.3100    0.0000 H       1  UNL1        0.2100
    192 H          18.1254   -4.3800    0.0000 H       1  UNL1        0.2100
    193 H          18.1254  -13.6200    0.0000 H       1  UNL1        0.2100
    194 H          19.3205   -3.6900    0.0000 H       1  UNL1        0.2100
    195 H          22.1264  -12.6900    0.0000 H       1  UNL1        0.2102
    196 H          17.5885   -6.6900    0.0000 H       1  UNL1        0.2102
    197 H          10.0757  -10.1077    0.0000 H       1  UNL1        0.0725
    198 H           9.6772   -9.4174    0.0000 H       1  UNL1        0.0725
    199 H          25.6642    4.8923    0.0000 H       1  UNL1        0.0725
    200 H          25.2656    5.5826    0.0000 H       1  UNL1        0.0725
    201 H          27.6517  -12.1200    0.0000 H       1  UNL1        0.2100
    202 H          26.4566  -12.8100    0.0000 H       1  UNL1        0.2100
    203 H          23.6506  -11.1900    0.0000 H       1  UNL1        0.2102
    204 H          22.9925   -9.8100    0.0000 H       1  UNL1        0.0664
    205 H          21.5895   -7.3800    0.0000 H       1  UNL1        0.0664
    206 H           6.2131   -2.5826    0.0000 H       1  UNL1        0.0584
    207 H           6.6116   -1.8923    0.0000 H       1  UNL1        0.0584
    208 H          21.8015   12.4174    0.0000 H       1  UNL1        0.0584
    209 H          22.2001   13.1077    0.0000 H       1  UNL1        0.0584
    210 H           7.1962  -11.3100    0.0000 H       1  UNL1        0.2100
    211 H          26.7856    4.6200    0.0000 H       1  UNL1        0.2100
    212 H           7.1962  -12.6900    0.0000 H       1  UNL1        0.2100
    213 H          27.3226    2.3100    0.0000 H       1  UNL1        0.2100
    214 H           8.9282  -14.3100    0.0000 H       1  UNL1        0.2102
    215 H          25.5905    0.6900    0.0000 H       1  UNL1        0.2102
    216 H          25.5905   -8.3100    0.0000 H       1  UNL1        0.0667
    217 H           3.7320   -0.6900    0.0000 H       1  UNL1        0.2100
    218 H          19.3205   14.3100    0.0000 H       1  UNL1        0.2100
    219 H           2.0000   -2.3100    0.0000 H       1  UNL1        0.2100
    220 H          18.1254   13.6200    0.0000 H       1  UNL1        0.2100
    221 H           2.5369   -4.6200    0.0000 H       1  UNL1        0.2102
    222 H          17.5885   11.3100    0.0000 H       1  UNL1        0.2102
    223 H          19.3205   -9.6900    0.0000 H       1  UNL1        0.2924
    224 H           6.5380   -0.6900    0.0000 H       1  UNL1        0.2095
    225 H          22.1264   14.3100    0.0000 H       1  UNL1        0.2095
    226 H          12.9292  -13.6200    0.0000 H       1  UNL1        0.0654
    227 H          11.5263  -11.1900    0.0000 H       1  UNL1        0.0654
    228 H          24.7245    0.8100    0.0000 H       1  UNL1        0.0654
    229 H          21.9186    0.8100    0.0000 H       1  UNL1        0.0654
    230 H          23.6310   -5.1547    0.0000 H       1  UNL1        0.0749
    231 H          15.5273  -12.1200    0.0000 H       1  UNL1        0.0689
    232 H          21.9186   -2.1900    0.0000 H       1  UNL1        0.0689
    233 H          28.9852   -8.9750    0.0000 H       1  UNL1        0.0493
    234 H          29.7823   -8.9750    0.0000 H       1  UNL1        0.0493
    235 H           4.5981   -6.8100    0.0000 H       1  UNL1        0.0654
    236 H           6.0010   -4.3800    0.0000 H       1  UNL1        0.0654
    237 H          21.5895   10.6200    0.0000 H       1  UNL1        0.0654
    238 H          20.1865    8.1900    0.0000 H       1  UNL1        0.0654
    239 H          26.5098   -5.1436    0.0000 H       1  UNL1        0.0691
    240 H          14.3322  -12.8100    0.0000 H       1  UNL1        0.0625
    241 H          12.9292  -10.3800    0.0000 H       1  UNL1        0.0625
    242 H          24.7245   -0.8100    0.0000 H       1  UNL1        0.0625
    243 H          21.9186   -0.8100    0.0000 H       1  UNL1        0.0625
    244 H          14.6613  -10.3800    0.0000 H       1  UNL1        0.0626
    245 H          23.8585   -2.3100    0.0000 H       1  UNL1        0.0626
    246 H           7.1962   -8.3100    0.0000 H       1  UNL1        0.0689
    247 H          22.7846    6.6900    0.0000 H       1  UNL1        0.0689
    248 H           6.0010   -7.6200    0.0000 H       1  UNL1        0.0625
    249 H           7.4040   -5.1900    0.0000 H       1  UNL1        0.0625
    250 H          22.9925    9.8100    0.0000 H       1  UNL1        0.0625
    251 H          21.5895    7.3800    0.0000 H       1  UNL1        0.0625
    252 H           8.2700   -6.6900    0.0000 H       1  UNL1        0.0626
    253 H          23.8585    8.3100    0.0000 H       1  UNL1        0.0626
    254 H          27.3643   -6.6994    0.0000 H       1  UNL1        0.2922
    255 H          25.6014   -3.6187    0.0000 H       1  UNL1        0.2921
    256 H          30.7867   -6.6900    0.0000 H       1  UNL1        0.2951
@<TRIPOS>UNITY_ATOM_ATTR
41 1
charge 1
@<TRIPOS>BOND
     1     1    60    1
     2     1    64    1
     3     2    61    1
     4     2    65    1
     5     3    66    1
     6     3    68    1
     7    64     4    1
     8     4    92    1
     9    65     5    1
    10     5    93    1
    11     6    73    1
    12     6    80    1
    13     7    74    1
    14     7    81    1
    15    68     8    1
    16     8    98    1
    17    54     9    1
    18     9   191    1
    19    55    10    1
    20    10   192    1
    21    56    11    1
    22    11   193    1
    23    57    12    1
    24    12   194    1
    25    58    13    1
    26    13   195    1
    27    59    14    1
    28    14   196    1
    29    62    15    1
    30    15   201    1
    31    63    16    1
    32    16   202    1
    33    67    17    1
    34    17   203    1
    35    18    86    1
    36    18    90    1
    37    19    87    1
    38    19    91    1
    39    20    75    1
    40    20   109    1
    41    21    76    1
    42    21   110    1
    43    69    22    1
    44    22   210    1
    45    70    23    1
    46    23   211    1
    47    71    24    1
    48    24   212    1
    49    72    25    1
    50    25   213    1
    51    80    26    1
    52    26   107    1
    53    81    27    1
    54    27   108    1
    55    28    79    1
    56    28   111    1
    57    77    29    1
    58    29   214    1
    59    78    30    1
    60    30   215    1
    61    82    31    1
    62    31   217    1
    63    83    32    1
    64    32   218    1
    65    84    33    1
    66    33   219    1
    67    85    34    1
    68    34   220    1
    69    90    35    1
    70    35   112    1
    71    91    36    1
    72    36   113    1
    73    88    37    1
    74    37   221    1
    75    89    38    1
    76    38   222    1
    77    39    94    1
    78    39   120    1
    79    40    95    1
    80    40   121    1
    81    41   101   ar
    82    41   106   ar
    83    42    96    1
    84    42   223    1
    85    43   102    1
    86    43   224    1
    87    44   103    1
    88    44   225    1
    89    45   109    2
    90    46   110    2
    91    47   111    2
    92    48   114    1
    93    48   254    1
    94    49   120    2
    95    50   121    2
    96    51   136    1
    97    51   255    1
    98    52   149    1
    99    52   256    1
   100    53   149    2
   101    54    56    1
   102    54    58    1
   103    54   150    1
   104    55    57    1
   105    55    59    1
   106    55   151    1
   107    56    60    1
   108    56   152    1
   109    57    61    1
   110    57   153    1
   111    58    64    1
   112    58   154    1
   113    59    65    1
   114    59   155    1
   115    60    75    1
   116    60   156    1
   117    61    76    1
   118    61   157    1
   119    62    63    1
   120    62    66    1
   121    62   158    1
   122    63    67    1
   123    63   159    1
   124    64   160    1
   125    65   161    1
   126    66    79    1
   127    66   162    1
   128    67    68    1
   129    67   163    1
   130    68   164    1
   131    69    71    1
   132    69    73    1
   133    69   165    1
   134    70    72    1
   135    70    74    1
   136    70   166    1
   137    71    77    1
   138    71   167    1
   139    72    78    1
   140    72   168    1
   141    73    94    1
   142    73   169    1
   143    74    95    1
   144    74   170    1
   145    75   171    1
   146    75   172    1
   147    76   173    1
   148    76   174    1
   149    77    80    1
   150    77   175    1
   151    78    81    1
   152    78   176    1
   153    79   177    1
   154    79   178    1
   155    80   179    1
   156    81   180    1
   157    82    84    1
   158    82    86    1
   159    82   181    1
   160    83    85    1
   161    83    87    1
   162    83   182    1
   163    84    88    1
   164    84   183    1
   165    85    89    1
   166    85   184    1
   167    86   102    1
   168    86   185    1
   169    87   103    1
   170    87   186    1
   171    88    90    1
   172    88   187    1
   173    89    91    1
   174    89   188    1
   175    90   189    1
   176    91   190    1
   177    92    96   ar
   178    92    99   ar
   179    93    96   ar
   180    93   100   ar
   181    94   197    1
   182    94   198    1
   183    95   199    1
   184    95   200    1
   185    97    99   ar
   186    97   100   ar
   187    97   101    1
   188    98   101   ar
   189    98   104   ar
   190    99   204    1
   191   100   205    1
   192   102   206    1
   193   102   207    1
   194   103   208    1
   195   103   209    1
   196   104   105   ar
   197   104   216    1
   198   105   106   ar
   199   105   114   ar
   200   106   119   ar
   201   107   115   ar
   202   107   116   ar
   203   108   117   ar
   204   108   118   ar
   205   109   122    1
   206   110   123    1
   207   111   124    1
   208   112   127   ar
   209   112   128   ar
   210   113   129   ar
   211   113   130   ar
   212   114   131   ar
   213   115   132   ar
   214   115   226    1
   215   116   133   ar
   216   116   227    1
   217   117   134   ar
   218   117   228    1
   219   118   135   ar
   220   118   229    1
   221   119   136   ar
   222   119   230    1
   223   120   141    1
   224   121   142    1
   225   122   137    2
   226   122   231    1
   227   123   138    2
   228   123   232    1
   229   124   149    1
   230   124   233    1
   231   124   234    1
   232   125   132   ar
   233   125   133   ar
   234   125   137    1
   235   126   134   ar
   236   126   135   ar
   237   126   138    1
   238   127   143   ar
   239   127   235    1
   240   128   144   ar
   241   128   236    1
   242   129   145   ar
   243   129   237    1
   244   130   146   ar
   245   130   238    1
   246   131   136   ar
   247   131   239    1
   248   132   240    1
   249   133   241    1
   250   134   242    1
   251   135   243    1
   252   137   244    1
   253   138   245    1
   254   139   143   ar
   255   139   144   ar
   256   139   147    1
   257   140   145   ar
   258   140   146   ar
   259   140   148    1
   260   141   147    2
   261   141   246    1
   262   142   148    2
   263   142   247    1
   264   143   248    1
   265   144   249    1
   266   145   250    1
   267   146   251    1
   268   147   252    1
   269   148   253    1
