@<TRIPOS>MOLECULE
IMPHY014594
 125 136 0 0 0
SMALL
GASTEIGER

@<TRIPOS>ATOM
      1 O          12.0174   -1.4663    0.0000 O.3     1  UNL1       -0.4530
      2 O          12.8220   -1.6245    0.0000 O.3     1  UNL1       -0.4502
      3 O          13.0291    0.9839    0.0000 O.3     1  UNL1       -0.4501
      4 O          14.7538   -1.1069    0.0000 O.3     1  UNL1       -0.4505
      5 O           7.0370   -0.0056    0.0000 O.3     1  UNL1       -0.4811
      6 O           9.2435   -2.4528    0.0000 O.3     1  UNL1       -0.5060
      7 O           8.8207   -1.8734    0.0000 O.3     1  UNL1       -0.5030
      8 O          10.3942    0.9559    0.0000 O.3     1  UNL1       -0.5062
      9 O          12.2995   -3.0640    0.0000 O.2     1  UNL1       -0.2449
     10 O          14.4950    1.2733    0.0000 O.3     1  UNL1       -0.4573
     11 O           5.9266   -2.4834    0.0000 O.3     1  UNL1       -0.3875
     12 O          10.3728   -4.9178    0.0000 O.3     1  UNL1       -0.5028
     13 O           8.7702   -3.8171    0.0000 O.3     1  UNL1       -0.5009
     14 O          13.7879   -1.3657    0.0000 O.2     1  UNL1       -0.2449
     15 O          11.2055   -5.0088    0.0000 O.3     1  UNL1       -0.5028
     16 O          14.6265   -5.6165    0.0000 O.3     1  UNL1       -0.5028
     17 O          12.7349   -6.3321    0.0000 O.3     1  UNL1       -0.5009
     18 O          14.5253    1.7628    0.0000 O.2     1  UNL1       -0.2449
     19 O          14.2361   -3.0387    0.0000 O.2     1  UNL1       -0.2449
     20 O          15.3984   -5.4565    0.0000 O.3     1  UNL1       -0.5028
     21 O          13.6018    2.9587    0.0000 O.2     1  UNL1       -0.2449
     22 O          17.3810   -4.9416    0.0000 O.3     1  UNL1       -0.5009
     23 O          17.9111   -2.9631    0.0000 O.3     1  UNL1       -0.5032
     24 O           3.8091    1.6357    0.0000 O.3     1  UNL1       -0.5033
     25 O          11.7807    4.8845    0.0000 O.3     1  UNL1       -0.5028
     26 O           2.4281    0.1890    0.0000 O.3     1  UNL1       -0.5033
     27 O           9.9990    1.8258    0.0000 O.3     1  UNL1       -0.5032
     28 O          12.6413    5.3814    0.0000 O.3     1  UNL1       -0.5028
     29 O           9.9990    3.8741    0.0000 O.3     1  UNL1       -0.5009
     30 O          14.4072    6.4192    0.0000 O.3     1  UNL1       -0.5009
     31 O          16.1811    5.3950    0.0000 O.3     1  UNL1       -0.5032
     32 C          11.8339   -0.4802    0.0000 C.3     1  UNL1        0.1548
     33 C          10.9639   -0.9612    0.0000 C.3     1  UNL1        0.0612
     34 C          12.8220   -0.5892    0.0000 C.3     1  UNL1        0.1811
     35 C          13.5291    0.1179    0.0000 C.3     1  UNL1        0.1834
     36 C          10.5307   -1.8559    0.0000 C.ar    1  UNL1        0.0237
     37 C           9.9913   -0.7286    0.0000 C.ar    1  UNL1        0.0470
     38 C          10.6931   -2.8367    0.0000 C.ar    1  UNL1        0.0779
     39 C          14.4950   -0.1410    0.0000 C.3     1  UNL1        0.1774
     40 C          11.3914   -3.5442    0.0000 C.ar    1  UNL1        0.0461
     41 C           9.3036   -1.4546    0.0000 C.ar    1  UNL1        0.1309
     42 C          11.5804   -2.3691    0.0000 C.2     1  UNL1        0.3407
     43 C           9.6868   -2.3733    0.0000 C.ar    1  UNL1        0.1668
     44 C           8.3310   -1.2220    0.0000 C.ar    1  UNL1        0.0387
     45 C           9.7064    0.2300    0.0000 C.ar    1  UNL1        0.1277
     46 C           7.6264   -1.9892    0.0000 C.3     1  UNL1        0.0092
     47 C          12.3700   -3.7191    0.0000 C.ar    1  UNL1        0.0464
     48 C           8.0462   -0.2635    0.0000 C.ar    1  UNL1        0.1317
     49 C           6.6115   -1.7548    0.0000 C.3     1  UNL1        0.1004
     50 C          15.2021    0.5662    0.0000 C.3     1  UNL1        0.1333
     51 C          13.2703   -3.2976    0.0000 C.ar    1  UNL1        0.0819
     52 C          10.4770   -3.9233    0.0000 C.ar    1  UNL1        0.1708
     53 C           6.3148   -0.7563    0.0000 C.3     1  UNL1        0.1513
     54 C           9.6611   -3.3628    0.0000 C.ar    1  UNL1        0.2015
     55 C           8.7339    0.4625    0.0000 C.ar    1  UNL1        0.0224
     56 C          13.5291   -2.3316    0.0000 C.2     1  UNL1        0.3411
     57 C          13.9774   -4.0047    0.0000 C.ar    1  UNL1        0.0464
     58 C          12.1547   -4.6942    0.0000 C.ar    1  UNL1        0.1708
     59 C           5.3431   -0.5200    0.0000 C.ar    1  UNL1       -0.0012
     60 C          14.9433   -3.7458    0.0000 C.ar    1  UNL1        0.0458
     61 C          13.5291    1.8499    0.0000 C.2     1  UNL1        0.3405
     62 C          13.8438   -4.9942    0.0000 C.ar    1  UNL1        0.1708
     63 C          14.4950   -2.0728    0.0000 C.2     1  UNL1        0.3405
     64 C          12.9098   -5.3475    0.0000 C.ar    1  UNL1        0.2019
     65 C          15.2021   -2.7799    0.0000 C.ar    1  UNL1        0.0740
     66 C          12.6631    2.3499    0.0000 C.ar    1  UNL1        0.0740
     67 C          15.6684   -4.4936    0.0000 C.ar    1  UNL1        0.1708
     68 C           5.0620    0.4397    0.0000 C.ar    1  UNL1       -0.0098
     69 C           4.6526   -1.2433    0.0000 C.ar    1  UNL1       -0.0513
     70 C          16.2040   -2.4948    0.0000 C.ar    1  UNL1       -0.0017
     71 C          12.6631    3.3499    0.0000 C.ar    1  UNL1        0.0458
     72 C          14.3951    2.3499    0.0000 C.2     1  UNL1        0.3401
     73 C          13.5291    3.8499    0.0000 C.ar    1  UNL1        0.0458
     74 C          14.3951    3.3499    0.0000 C.ar    1  UNL1        0.0740
     75 C          16.6766   -4.2318    0.0000 C.ar    1  UNL1        0.2012
     76 C          16.9462   -3.2257    0.0000 C.ar    1  UNL1        0.1628
     77 C          11.7691    1.8153    0.0000 C.ar    1  UNL1       -0.0017
     78 C           4.0903    0.6760    0.0000 C.ar    1  UNL1        0.1586
     79 C           3.6810   -1.0070    0.0000 C.ar    1  UNL1       -0.0162
     80 C          11.7691    3.8846    0.0000 C.ar    1  UNL1        0.1708
     81 C           3.3998   -0.0473    0.0000 C.ar    1  UNL1        0.1582
     82 C          10.8631    2.3291    0.0000 C.ar    1  UNL1        0.1628
     83 C          13.5130    4.8914    0.0000 C.ar    1  UNL1        0.1708
     84 C          15.3051    3.8568    0.0000 C.ar    1  UNL1       -0.0017
     85 C          10.8631    3.3707    0.0000 C.ar    1  UNL1        0.2012
     86 C          14.4111    5.4192    0.0000 C.ar    1  UNL1        0.2012
     87 C          15.3132    4.8984    0.0000 C.ar    1  UNL1        0.1628
     88 H          11.2110    0.0981    0.0000 H       1  UNL1        0.0782
     89 H          10.7218   -0.1464    0.0000 H       1  UNL1        0.0438
     90 H          12.1889   -1.1564    0.0000 H       1  UNL1        0.0811
     91 H          12.6864    0.2288    0.0000 H       1  UNL1        0.0812
     92 H          15.3161   -0.3609    0.0000 H       1  UNL1        0.0808
     93 H           7.3856   -2.5605    0.0000 H       1  UNL1        0.0342
     94 H           8.1481   -2.3243    0.0000 H       1  UNL1        0.0342
     95 H           6.0083   -1.6117    0.0000 H       1  UNL1        0.0637
     96 H          15.6405    0.1277    0.0000 H       1  UNL1        0.0736
     97 H          15.6405    1.0046    0.0000 H       1  UNL1        0.0736
     98 H           6.1416   -0.1610    0.0000 H       1  UNL1        0.0811
     99 H           8.5572    1.0568    0.0000 H       1  UNL1        0.0691
    100 H           8.6889   -2.7300    0.0000 H       1  UNL1        0.2922
    101 H           8.2838   -2.1835    0.0000 H       1  UNL1        0.2923
    102 H          10.9972    0.8117    0.0000 H       1  UNL1        0.2921
    103 H           6.1056   -3.0770    0.0000 H       1  UNL1        0.2100
    104 H           9.8065   -5.1702    0.0000 H       1  UNL1        0.2923
    105 H           8.7379   -4.4362    0.0000 H       1  UNL1        0.2924
    106 H           5.4901    0.8882    0.0000 H       1  UNL1        0.0659
    107 H           4.8270   -1.8383    0.0000 H       1  UNL1        0.0623
    108 H          16.3575   -1.8942    0.0000 H       1  UNL1        0.0664
    109 H          11.0802   -5.6160    0.0000 H       1  UNL1        0.2923
    110 H          11.7763    1.1953    0.0000 H       1  UNL1        0.0664
    111 H          14.5351   -6.2297    0.0000 H       1  UNL1        0.2923
    112 H          13.2094   -6.7312    0.0000 H       1  UNL1        0.2924
    113 H           3.2528   -1.4554    0.0000 H       1  UNL1        0.0655
    114 H          15.8384    3.5406    0.0000 H       1  UNL1        0.0664
    115 H          15.8318   -5.9000    0.0000 H       1  UNL1        0.2923
    116 H          17.9805   -4.7835    0.0000 H       1  UNL1        0.2924
    117 H          18.0693   -2.3636    0.0000 H       1  UNL1        0.2923
    118 H           3.2067    1.7822    0.0000 H       1  UNL1        0.2923
    119 H          11.2474    5.2007    0.0000 H       1  UNL1        0.2923
    120 H           2.0000   -0.2595    0.0000 H       1  UNL1        0.2923
    121 H           9.4608    2.1337    0.0000 H       1  UNL1        0.2923
    122 H          12.6341    6.0013    0.0000 H       1  UNL1        0.2923
    123 H          10.0014    4.4941    0.0000 H       1  UNL1        0.2924
    124 H          14.9430    6.7312    0.0000 H       1  UNL1        0.2924
    125 H          16.7168    5.0830    0.0000 H       1  UNL1        0.2923
@<TRIPOS>BOND
     1     1    32    1
     2     1    42    1
     3     2    34    1
     4     2    56    1
     5     3    35    1
     6     3    61    1
     7     4    39    1
     8     4    63    1
     9     5    48    1
    10     5    53    1
    11     6    41    1
    12     6   100    1
    13     7    43    1
    14     7   101    1
    15     8    45    1
    16     8   102    1
    17     9    42    2
    18    10    50    1
    19    10    72    1
    20    49    11    1
    21    11   103    1
    22    12    52    1
    23    12   104    1
    24    13    54    1
    25    13   105    1
    26    14    56    2
    27    15    58    1
    28    15   109    1
    29    16    62    1
    30    16   111    1
    31    17    64    1
    32    17   112    1
    33    18    61    2
    34    19    63    2
    35    20    67    1
    36    20   115    1
    37    21    72    2
    38    22    75    1
    39    22   116    1
    40    23    76    1
    41    23   117    1
    42    24    78    1
    43    24   118    1
    44    25    80    1
    45    25   119    1
    46    26    81    1
    47    26   120    1
    48    27    82    1
    49    27   121    1
    50    28    83    1
    51    28   122    1
    52    29    85    1
    53    29   123    1
    54    30    86    1
    55    30   124    1
    56    31    87    1
    57    31   125    1
    58    32    33    1
    59    32    34    1
    60    32    88    1
    61    33    36    1
    62    33    37    1
    63    33    89    1
    64    34    35    1
    65    34    90    1
    66    35    39    1
    67    35    91    1
    68    36    38   ar
    69    36    43   ar
    70    37    41   ar
    71    37    45   ar
    72    38    40   ar
    73    38    42    1
    74    39    50    1
    75    39    92    1
    76    40    47    1
    77    40    52   ar
    78    41    44   ar
    79    43    54   ar
    80    44    46    1
    81    44    48   ar
    82    45    55   ar
    83    46    49    1
    84    46    93    1
    85    46    94    1
    86    47    51   ar
    87    47    58   ar
    88    48    55   ar
    89    49    53    1
    90    49    95    1
    91    50    96    1
    92    50    97    1
    93    51    56    1
    94    51    57   ar
    95    52    54   ar
    96    53    59    1
    97    53    98    1
    98    55    99    1
    99    57    60    1
   100    57    62   ar
   101    58    64   ar
   102    59    68   ar
   103    59    69   ar
   104    60    65   ar
   105    60    67   ar
   106    61    66    1
   107    62    64   ar
   108    63    65    1
   109    65    70   ar
   110    66    71   ar
   111    66    77   ar
   112    67    75   ar
   113    68    78   ar
   114    68   106    1
   115    69    79   ar
   116    69   107    1
   117    70    76   ar
   118    70   108    1
   119    71    73    1
   120    71    80   ar
   121    72    74    1
   122    73    74   ar
   123    73    83   ar
   124    74    84   ar
   125    75    76   ar
   126    77    82   ar
   127    77   110    1
   128    78    81   ar
   129    79    81   ar
   130    79   113    1
   131    80    85   ar
   132    82    85   ar
   133    83    86   ar
   134    84    87   ar
   135    84   114    1
   136    86    87   ar
