@<TRIPOS>MOLECULE
IMPHY003129
 21 21 0 0 0
SMALL
GASTEIGER

@<TRIPOS>ATOM
      1 O           5.4641    1.3450    0.0000 O.3     1  UNL1       -0.5031
      2 O           7.1962    0.3450    0.0000 O.3     1  UNL1       -0.5033
      3 C           4.5981   -0.1550    0.0000 C.ar    1  UNL1        0.0014
      4 C           3.7320    0.3450    0.0000 C.3     1  UNL1       -0.0062
      5 C           5.4641    0.3450    0.0000 C.ar    1  UNL1        0.1618
      6 C           4.5981   -1.1550    0.0000 C.ar    1  UNL1       -0.0546
      7 C           6.3301   -0.1550    0.0000 C.ar    1  UNL1        0.1585
      8 C           5.4641   -1.6550    0.0000 C.ar    1  UNL1       -0.0578
      9 C           6.3301   -1.1550    0.0000 C.ar    1  UNL1       -0.0165
     10 C           2.8660   -0.1550    0.0000 C.2     1  UNL1       -0.0867
     11 C           2.0000    0.3450    0.0000 C.2     1  UNL1       -0.1023
     12 H           4.1306    0.8199    0.0000 H       1  UNL1        0.0357
     13 H           3.3335    0.8199    0.0000 H       1  UNL1        0.0357
     14 H           4.0611   -1.4650    0.0000 H       1  UNL1        0.0622
     15 H           5.4641   -2.2750    0.0000 H       1  UNL1        0.0619
     16 H           6.8671   -1.4650    0.0000 H       1  UNL1        0.0655
     17 H           2.8660   -0.7750    0.0000 H       1  UNL1        0.0570
     18 H           6.0010    1.6550    0.0000 H       1  UNL1        0.2923
     19 H           7.7331    0.0350    0.0000 H       1  UNL1        0.2923
     20 H           2.0000    0.9650    0.0000 H       1  UNL1        0.0532
     21 H           1.4631    0.0350    0.0000 H       1  UNL1        0.0532
@<TRIPOS>BOND
     1     1     5    1
     2     1    18    1
     3     2     7    1
     4     2    19    1
     5     3     4    1
     6     3     5   ar
     7     3     6   ar
     8     4    10    1
     9     4    12    1
    10     4    13    1
    11     5     7   ar
    12     6     8   ar
    13     6    14    1
    14     7     9   ar
    15     8     9   ar
    16     8    15    1
    17     9    16    1
    18    10    11    2
    19    10    17    1
    20    11    20    1
    21    11    21    1
