@<TRIPOS>MOLECULE
IMPHY016124
 25 25 0 0 0
SMALL
GASTEIGER

@<TRIPOS>ATOM
      1 O           2.0000   -1.3626    0.0000 O.2     1  UNL1       -0.2927
      2 C           4.0823    0.8807    0.0000 C.3     1  UNL1       -0.0129
      3 C           3.2733    0.2929    0.0000 C.3     1  UNL1       -0.0179
      4 C           4.8913    0.2929    0.0000 C.3     1  UNL1       -0.0273
      5 C           3.5823   -0.6581    0.0000 C.2     1  UNL1       -0.0086
      6 C           4.5823   -0.6581    0.0000 C.2     1  UNL1       -0.0769
      7 C           4.0823    1.8807    0.0000 C.2     1  UNL1       -0.0760
      8 C           2.9945   -1.4672    0.0000 C.2     1  UNL1        0.1559
      9 C           4.9483    2.3807    0.0000 C.3     1  UNL1       -0.0438
     10 C           3.2163    2.3807    0.0000 C.2     1  UNL1       -0.0994
     11 C           3.4013   -2.3807    0.0000 C.3     1  UNL1       -0.0017
     12 H           4.6347    1.1622    0.0000 H       1  UNL1        0.0352
     13 H           2.9633    0.8299    0.0000 H       1  UNL1        0.0320
     14 H           2.7069    0.0407    0.0000 H       1  UNL1        0.0320
     15 H           5.4577    0.0407    0.0000 H       1  UNL1        0.0313
     16 H           5.2013    0.8299    0.0000 H       1  UNL1        0.0313
     17 H           4.9467   -1.1597    0.0000 H       1  UNL1        0.0576
     18 H           5.2583    1.8438    0.0000 H       1  UNL1        0.0274
     19 H           5.4853    2.6907    0.0000 H       1  UNL1        0.0274
     20 H           4.6383    2.9176    0.0000 H       1  UNL1        0.0274
     21 H           3.2163    3.0007    0.0000 H       1  UNL1        0.0534
     22 H           2.6794    2.0707    0.0000 H       1  UNL1        0.0534
     23 H           2.8349   -2.6329    0.0000 H       1  UNL1        0.0309
     24 H           3.6534   -2.9471    0.0000 H       1  UNL1        0.0309
     25 H           3.9677   -2.1285    0.0000 H       1  UNL1        0.0309
@<TRIPOS>BOND
     1     1     8    2
     2     2     3    1
     3     2     4    1
     4     2     7    1
     5     2    12    1
     6     3     5    1
     7     3    13    1
     8     3    14    1
     9     4     6    1
    10     4    15    1
    11     4    16    1
    12     5     6    2
    13     5     8    1
    14     6    17    1
    15     7     9    1
    16     7    10    2
    17     8    11    1
    18     9    18    1
    19     9    19    1
    20     9    20    1
    21    10    21    1
    22    10    22    1
    23    11    23    1
    24    11    24    1
    25    11    25    1
