@<TRIPOS>MOLECULE
IMPHY007858
 50 51 0 0 0
SMALL
GASTEIGER

@<TRIPOS>ATOM
      1 O           5.5525   -0.3178    0.0000 O.3     1  UNL1       -0.4622
      2 O           4.0574   -0.1370    0.0000 O.3     1  UNL1       -0.3752
      3 O           5.9126    1.3764    0.0000 O.2     1  UNL1       -0.2475
      4 O           3.7301    2.4884    0.0000 O.3     1  UNL1       -0.3886
      5 N           7.7907   -2.7858    0.0000 N.3     1  UNL1       -0.2990
      6 C           7.7907   -1.7858    0.0000 C.3     1  UNL1        0.0164
      7 C           6.8396   -1.4768    0.0000 C.3     1  UNL1        0.0101
      8 C           8.7369   -1.4811    0.0000 C.3     1  UNL1       -0.0358
      9 C           6.2519   -2.2858    0.0000 C.3     1  UNL1       -0.0328
     10 C           6.8396   -3.0948    0.0000 C.3     1  UNL1       -0.0004
     11 C           8.7369   -3.0906    0.0000 C.3     1  UNL1       -0.0008
     12 C           9.3205   -2.2858    0.0000 C.3     1  UNL1       -0.0388
     13 C           6.5306   -0.5258    0.0000 C.3     1  UNL1        0.0968
     14 C           4.2653    0.8411    0.0000 C.3     1  UNL1        0.1903
     15 C           3.2872    1.0490    0.0000 C.3     1  UNL1       -0.0022
     16 C           5.2435    0.6332    0.0000 C.2     1  UNL1        0.3420
     17 C           4.4732    1.8193    0.0000 C.3     1  UNL1        0.0918
     18 C           2.9782    2.0001    0.0000 C.3     1  UNL1       -0.0501
     19 C           2.6180    0.3059    0.0000 C.3     1  UNL1       -0.0592
     20 C           5.4243    2.1283    0.0000 C.3     1  UNL1       -0.0357
     21 C           2.0000    2.2080    0.0000 C.3     1  UNL1       -0.0649
     22 H           7.7918   -0.9358    0.0000 H       1  UNL1        0.0466
     23 H           7.4407   -0.8758    0.0000 H       1  UNL1        0.0349
     24 H           9.2743   -1.1719    0.0000 H       1  UNL1        0.0281
     25 H           8.4859   -0.9142    0.0000 H       1  UNL1        0.0281
     26 H           5.7911   -1.8710    0.0000 H       1  UNL1        0.0282
     27 H           5.7911   -2.7007    0.0000 H       1  UNL1        0.0282
     28 H           6.3027   -3.4048    0.0000 H       1  UNL1        0.0427
     29 H           7.0918   -3.6612    0.0000 H       1  UNL1        0.0427
     30 H           8.4859   -3.6575    0.0000 H       1  UNL1        0.0427
     31 H           9.2743   -3.3998    0.0000 H       1  UNL1        0.0427
     32 H           9.7814   -2.7006    0.0000 H       1  UNL1        0.0278
     33 H           9.7814   -1.8711    0.0000 H       1  UNL1        0.0278
     34 H           7.1446   -0.4395    0.0000 H       1  UNL1        0.0701
     35 H           6.5523    0.0939    0.0000 H       1  UNL1        0.0701
     36 H           3.5498    0.2406    0.0000 H       1  UNL1        0.0332
     37 H           3.6648    1.5566    0.0000 H       1  UNL1        0.0625
     38 H           3.5921    2.0864    0.0000 H       1  UNL1        0.0266
     39 H           2.9998    2.6197    0.0000 H       1  UNL1        0.0266
     40 H           2.1573    0.7207    0.0000 H       1  UNL1        0.0233
     41 H           2.2032   -0.1549    0.0000 H       1  UNL1        0.0233
     42 H           3.0788   -0.1090    0.0000 H       1  UNL1        0.0233
     43 H           5.6159    1.5386    0.0000 H       1  UNL1        0.0255
     44 H           6.0139    2.3199    0.0000 H       1  UNL1        0.0255
     45 H           5.2327    2.7179    0.0000 H       1  UNL1        0.0255
     46 H           3.4678   -0.3286    0.0000 H       1  UNL1        0.2110
     47 H           2.1289    2.8144    0.0000 H       1  UNL1        0.0230
     48 H           1.3936    2.3369    0.0000 H       1  UNL1        0.0230
     49 H           1.8711    1.6016    0.0000 H       1  UNL1        0.0230
     50 H           3.8590    3.0948    0.0000 H       1  UNL1        0.2099
@<TRIPOS>BOND
     1     1    13    1
     2     1    16    1
     3     2    14    1
     4     2    46    1
     5     3    16    2
     6     4    17    1
     7     4    50    1
     8     5     6    1
     9     5    10    1
    10     5    11    1
    11     6     7    1
    12     6     8    1
    13     6    22    1
    14     7     9    1
    15     7    13    1
    16     7    23    1
    17     8    12    1
    18     8    24    1
    19     8    25    1
    20     9    10    1
    21     9    26    1
    22     9    27    1
    23    10    28    1
    24    10    29    1
    25    11    12    1
    26    11    30    1
    27    11    31    1
    28    12    32    1
    29    12    33    1
    30    13    34    1
    31    13    35    1
    32    14    15    1
    33    14    16    1
    34    14    17    1
    35    15    18    1
    36    15    19    1
    37    15    36    1
    38    17    20    1
    39    17    37    1
    40    18    21    1
    41    18    38    1
    42    18    39    1
    43    19    40    1
    44    19    41    1
    45    19    42    1
    46    20    43    1
    47    20    44    1
    48    20    45    1
    49    21    47    1
    50    21    48    1
    51    21    49    1
