@<TRIPOS>MOLECULE
IMPHY015320
 51 51 0 0 0
SMALL
GASTEIGER

@<TRIPOS>ATOM
      1 F           2.0000   -6.7500    0.0000 F       1  UNL1       -0.2053
      2 F           5.4641   -6.7500    0.0000 F       1  UNL1       -0.2053
      3 O           5.4641   -1.7500    0.0000 O.3     1  UNL1       -0.4567
      4 O           3.7320   -1.7500    0.0000 O.2     1  UNL1       -0.2376
      5 O           3.7320   -3.7500    0.0000 O.3     1  UNL1       -0.4177
      6 O           5.4641   -3.7500    0.0000 O.2     1  UNL1       -0.2371
      7 C           8.0622    2.7500    0.0000 C.3     1  UNL1       -0.0531
      8 C           7.1962    2.2500    0.0000 C.3     1  UNL1       -0.0531
      9 C           8.0622    3.7500    0.0000 C.3     1  UNL1       -0.0531
     10 C           7.1962    1.2500    0.0000 C.3     1  UNL1       -0.0530
     11 C           8.9282    4.2500    0.0000 C.3     1  UNL1       -0.0531
     12 C           6.3301    0.7500    0.0000 C.3     1  UNL1       -0.0500
     13 C           8.9282    5.2500    0.0000 C.3     1  UNL1       -0.0533
     14 C           6.3301   -0.2500    0.0000 C.3     1  UNL1       -0.0185
     15 C           9.7942    5.7500    0.0000 C.3     1  UNL1       -0.0559
     16 C           5.4641   -0.7500    0.0000 C.3     1  UNL1        0.0930
     17 C           9.7942    6.7500    0.0000 C.3     1  UNL1       -0.0653
     18 C           4.5981   -2.2500    0.0000 C.2     1  UNL1        0.4177
     19 C           4.5981   -3.2500    0.0000 C.2     1  UNL1        0.4225
     20 C           3.7320   -4.7500    0.0000 C.ar    1  UNL1        0.1376
     21 C           4.5981   -5.2500    0.0000 C.ar    1  UNL1        0.0162
     22 C           2.8660   -5.2500    0.0000 C.ar    1  UNL1        0.0162
     23 C           2.8660   -6.2500    0.0000 C.ar    1  UNL1        0.1296
     24 C           4.5981   -6.2500    0.0000 C.ar    1  UNL1        0.1296
     25 C           3.7320   -6.7500    0.0000 C.ar    1  UNL1        0.0090
     26 H           8.2742    2.1674    0.0000 H       1  UNL1        0.0265
     27 H           8.6728    2.8577    0.0000 H       1  UNL1        0.0265
     28 H           6.9841    2.8326    0.0000 H       1  UNL1        0.0265
     29 H           6.5856    2.1423    0.0000 H       1  UNL1        0.0265
     30 H           7.8501    4.3326    0.0000 H       1  UNL1        0.0265
     31 H           7.4516    3.6423    0.0000 H       1  UNL1        0.0265
     32 H           7.4082    0.6674    0.0000 H       1  UNL1        0.0265
     33 H           7.8067    1.3577    0.0000 H       1  UNL1        0.0265
     34 H           9.1403    3.6674    0.0000 H       1  UNL1        0.0265
     35 H           9.5388    4.3577    0.0000 H       1  UNL1        0.0265
     36 H           6.1181    1.3326    0.0000 H       1  UNL1        0.0266
     37 H           5.7196    0.6423    0.0000 H       1  UNL1        0.0266
     38 H           8.7162    5.8326    0.0000 H       1  UNL1        0.0265
     39 H           8.3176    5.1423    0.0000 H       1  UNL1        0.0265
     40 H           6.5422   -0.8326    0.0000 H       1  UNL1        0.0298
     41 H           6.9407   -0.1423    0.0000 H       1  UNL1        0.0298
     42 H          10.0063    5.1674    0.0000 H       1  UNL1        0.0263
     43 H          10.4048    5.8577    0.0000 H       1  UNL1        0.0263
     44 H           5.2520   -0.1674    0.0000 H       1  UNL1        0.0697
     45 H           4.8535   -0.8577    0.0000 H       1  UNL1        0.0697
     46 H          10.4142    6.7500    0.0000 H       1  UNL1        0.0230
     47 H           9.7942    7.3700    0.0000 H       1  UNL1        0.0230
     48 H           9.1742    6.7500    0.0000 H       1  UNL1        0.0230
     49 H           5.1350   -4.9400    0.0000 H       1  UNL1        0.0683
     50 H           2.3291   -4.9400    0.0000 H       1  UNL1        0.0683
     51 H           3.7320   -7.3700    0.0000 H       1  UNL1        0.0675
@<TRIPOS>BOND
     1     1    23    1
     2     2    24    1
     3     3    16    1
     4     3    18    1
     5     4    18    2
     6     5    19    1
     7     5    20    1
     8     6    19    2
     9     7     8    1
    10     7     9    1
    11     7    26    1
    12     7    27    1
    13     8    10    1
    14     8    28    1
    15     8    29    1
    16     9    11    1
    17     9    30    1
    18     9    31    1
    19    10    12    1
    20    10    32    1
    21    10    33    1
    22    11    13    1
    23    11    34    1
    24    11    35    1
    25    12    14    1
    26    12    36    1
    27    12    37    1
    28    13    15    1
    29    13    38    1
    30    13    39    1
    31    14    16    1
    32    14    40    1
    33    14    41    1
    34    15    17    1
    35    15    42    1
    36    15    43    1
    37    16    44    1
    38    16    45    1
    39    17    46    1
    40    17    47    1
    41    17    48    1
    42    18    19    1
    43    20    21   ar
    44    20    22   ar
    45    21    24   ar
    46    21    49    1
    47    22    23   ar
    48    22    50    1
    49    23    25   ar
    50    24    25   ar
    51    25    51    1
