@<TRIPOS>MOLECULE
IMPHY003565
 49 53 0 0 0
SMALL
GASTEIGER

@<TRIPOS>ATOM
      1 O           7.1377   -2.0358    0.0000 O.3     1  UNL1       -0.3576
      2 O           8.9752   -2.0647    0.0000 O.3     1  UNL1       -0.4910
      3 O           2.6079    0.6952    0.0000 O.3     1  UNL1       -0.4526
      4 O           2.6079    2.3716    0.0000 O.3     1  UNL1       -0.4526
      5 O          10.7866   -1.0189    0.0000 O.3     1  UNL1       -0.4914
      6 N           6.2435   -0.5081    0.0000 N.pl3   1  UNL1       -0.3030
      7 C           7.1415   -1.0358    0.0000 C.3     1  UNL1        0.1547
      8 C           6.2596    0.5334    0.0000 C.ar    1  UNL1        0.0473
      9 C           8.0436   -0.5150    0.0000 C.ar    1  UNL1        0.0522
     10 C           7.1256    1.0334    0.0000 C.ar    1  UNL1        0.0043
     11 C           8.0356    0.5266    0.0000 C.ar    1  UNL1       -0.0051
     12 C           5.3935    1.0334    0.0000 C.ar    1  UNL1        0.0075
     13 C           5.3935    2.0334    0.0000 C.ar    1  UNL1       -0.0124
     14 C           7.1256    2.0334    0.0000 C.ar    1  UNL1       -0.0517
     15 C           8.9790   -1.0648    0.0000 C.ar    1  UNL1        0.1693
     16 C           5.3717   -0.9980    0.0000 C.3     1  UNL1        0.0034
     17 C           8.9624    1.0906    0.0000 C.ar    1  UNL1       -0.0499
     18 C           6.2596    2.5334    0.0000 C.ar    1  UNL1       -0.0532
     19 C           4.4996    0.4988    0.0000 C.ar    1  UNL1       -0.0066
     20 C           4.4996    2.5681    0.0000 C.ar    1  UNL1       -0.0084
     21 C           9.9187   -0.5223    0.0000 C.ar    1  UNL1        0.1619
     22 C           3.5935    1.0126    0.0000 C.ar    1  UNL1        0.1669
     23 C           3.5935    2.0542    0.0000 C.ar    1  UNL1        0.1668
     24 C           9.9103    0.5627    0.0000 C.ar    1  UNL1       -0.0157
     25 C           6.2697   -2.5325    0.0000 C.3     1  UNL1        0.0391
     26 C           2.0000    1.5334    0.0000 C.3     1  UNL1        0.2332
     27 C           9.8393   -2.5681    0.0000 C.3     1  UNL1        0.0790
     28 C          11.6507   -0.5156    0.0000 C.3     1  UNL1        0.0790
     29 H           7.6779   -1.3469    0.0000 H       1  UNL1        0.0864
     30 H           7.6625    2.3434    0.0000 H       1  UNL1        0.0624
     31 H           5.0680   -0.4576    0.0000 H       1  UNL1        0.0429
     32 H           4.8313   -1.3018    0.0000 H       1  UNL1        0.0429
     33 H           5.6755   -1.5385    0.0000 H       1  UNL1        0.0429
     34 H           8.9505    1.7105    0.0000 H       1  UNL1        0.0625
     35 H           6.2596    3.1534    0.0000 H       1  UNL1        0.0624
     36 H           4.5068   -0.1212    0.0000 H       1  UNL1        0.0662
     37 H           4.5068    3.1880    0.0000 H       1  UNL1        0.0661
     38 H          10.4436    0.8789    0.0000 H       1  UNL1        0.0655
     39 H           5.9618   -1.9944    0.0000 H       1  UNL1        0.0524
     40 H           5.7316   -2.8404    0.0000 H       1  UNL1        0.0524
     41 H           6.5777   -3.0706    0.0000 H       1  UNL1        0.0524
     42 H           1.5391    1.9482    0.0000 H       1  UNL1        0.1166
     43 H           1.5391    1.1187    0.0000 H       1  UNL1        0.1166
     44 H           9.5272   -3.1038    0.0000 H       1  UNL1        0.0660
     45 H          10.3750   -2.8802    0.0000 H       1  UNL1        0.0660
     46 H          10.1513   -2.0323    0.0000 H       1  UNL1        0.0660
     47 H          11.9628   -1.0513    0.0000 H       1  UNL1        0.0660
     48 H          12.1864   -0.2035    0.0000 H       1  UNL1        0.0660
     49 H          11.3386    0.0202    0.0000 H       1  UNL1        0.0660
@<TRIPOS>BOND
     1     1     7    1
     2     1    25    1
     3     2    15    1
     4     2    27    1
     5     3    22    1
     6     3    26    1
     7     4    23    1
     8     4    26    1
     9     5    21    1
    10     5    28    1
    11     6     7    1
    12     6     8    1
    13     6    16    1
    14     7     9    1
    15     7    29    1
    16     8    10   ar
    17     8    12   ar
    18     9    11   ar
    19     9    15   ar
    20    10    11    1
    21    10    14   ar
    22    11    17   ar
    23    12    13   ar
    24    12    19   ar
    25    13    18   ar
    26    13    20   ar
    27    14    18   ar
    28    14    30    1
    29    15    21   ar
    30    16    31    1
    31    16    32    1
    32    16    33    1
    33    17    24   ar
    34    17    34    1
    35    18    35    1
    36    19    22   ar
    37    19    36    1
    38    20    23   ar
    39    20    37    1
    40    21    24   ar
    41    22    23   ar
    42    24    38    1
    43    25    39    1
    44    25    40    1
    45    25    41    1
    46    26    42    1
    47    26    43    1
    48    27    44    1
    49    27    45    1
    50    27    46    1
    51    28    47    1
    52    28    48    1
    53    28    49    1
