@<TRIPOS>MOLECULE
IMPHY014453
 24 24 0 0 0
SMALL
GASTEIGER

@<TRIPOS>ATOM
      1 O           4.2690   -0.8100    0.0000 O.3     1  UNL1       -0.4658
      2 O           2.5369   -0.8100    0.0000 O.3     1  UNL1       -0.3601
      3 O           7.7331    2.1900    0.0000 O.3     1  UNL1       -0.4775
      4 O           6.0010    2.1900    0.0000 O.2     1  UNL1       -0.2458
      5 C           6.0010   -0.8100    0.0000 C.ar    1  UNL1        0.0170
      6 C           5.1350   -1.3100    0.0000 C.ar    1  UNL1        0.1307
      7 C           6.8671   -1.3100    0.0000 C.ar    1  UNL1       -0.0511
      8 C           5.1350   -2.3100    0.0000 C.ar    1  UNL1       -0.0192
      9 C           6.8671   -2.3100    0.0000 C.ar    1  UNL1       -0.0610
     10 C           6.0010   -2.8100    0.0000 C.ar    1  UNL1       -0.0583
     11 C           6.0010    0.1900    0.0000 C.2     1  UNL1       -0.0444
     12 C           6.8671    0.6900    0.0000 C.2     1  UNL1        0.0230
     13 C           3.4030   -1.3100    0.0000 C.3     1  UNL1        0.1883
     14 C           6.8671    1.6900    0.0000 C.2     1  UNL1        0.3296
     15 H           7.4040   -1.0000    0.0000 H       1  UNL1        0.0625
     16 H           4.5981   -2.6200    0.0000 H       1  UNL1        0.0654
     17 H           7.4040   -2.6200    0.0000 H       1  UNL1        0.0618
     18 H           6.0010   -3.4300    0.0000 H       1  UNL1        0.0619
     19 H           5.4641    0.5000    0.0000 H       1  UNL1        0.0627
     20 H           7.4040    0.3800    0.0000 H       1  UNL1        0.0689
     21 H           3.0044   -1.7850    0.0000 H       1  UNL1        0.1015
     22 H           3.8015   -1.7850    0.0000 H       1  UNL1        0.1015
     23 H           2.0000   -1.1200    0.0000 H       1  UNL1        0.2133
     24 H           7.7331    2.8100    0.0000 H       1  UNL1        0.2954
@<TRIPOS>BOND
     1     1     6    1
     2     1    13    1
     3     2    13    1
     4     2    23    1
     5     3    14    1
     6     3    24    1
     7     4    14    2
     8     5     6   ar
     9     5     7   ar
    10     5    11    1
    11     6     8   ar
    12     7     9   ar
    13     7    15    1
    14     8    10   ar
    15     8    16    1
    16     9    10   ar
    17     9    17    1
    18    10    18    1
    19    11    12    2
    20    11    19    1
    21    12    14    1
    22    12    20    1
    23    13    21    1
    24    13    22    1
