@<TRIPOS>MOLECULE
IMPHY010226
 74 79 0 0 0
SMALL
GASTEIGER

@<TRIPOS>ATOM
      1 O           4.3842   -1.5407    0.0000 O.3     1  UNL1       -0.3815
      2 O           3.9430   -0.7026    0.0000 O.3     1  UNL1       -0.3731
      3 O           5.4605   -1.8714    0.0000 O.3     1  UNL1       -0.3765
      4 O           7.2832    1.8904    0.0000 O.3     1  UNL1       -0.3912
      5 O           3.5663    1.4645    0.0000 O.3     1  UNL1       -0.3910
      6 O           3.1655    2.3483    0.0000 O.3     1  UNL1       -0.3793
      7 O           8.1492   -2.3448    0.0000 O.3     1  UNL1       -0.3824
      8 N           8.4785    0.0613    0.0000 N.3     1  UNL1       -0.2955
      9 C           6.5319    0.4566    0.0000 C.3     1  UNL1        0.0242
     10 C           6.5319   -0.4110    0.0000 C.3     1  UNL1        0.0068
     11 C           7.5338    0.3505    0.0000 C.3     1  UNL1        0.0529
     12 C           5.0077   -0.7589    0.0000 C.3     1  UNL1        0.1373
     13 C           5.8536    0.9975    0.0000 C.3     1  UNL1       -0.0228
     14 C           5.0077    0.8044    0.0000 C.3     1  UNL1        0.0209
     15 C           4.6313    0.0228    0.0000 C.3     1  UNL1        0.1094
     16 C           5.8536   -0.9519    0.0000 C.3     1  UNL1        0.0952
     17 C           7.2832   -0.8448    0.0000 C.3     1  UNL1        0.0128
     18 C           7.2832    0.8904    0.0000 C.3     1  UNL1        0.0630
     19 C           5.9313    1.8616    0.0000 C.3     1  UNL1       -0.0416
     20 C           5.1336    2.2026    0.0000 C.3     1  UNL1        0.0120
     21 C           4.5627    1.5492    0.0000 C.3     1  UNL1        0.0662
     22 C           3.9864    0.2927    0.0000 C.3     1  UNL1        0.0062
     23 C           8.4785   -0.6906    0.0000 C.3     1  UNL1        0.0074
     24 C           8.0345   -0.4110    0.0000 C.3     1  UNL1       -0.0414
     25 C           3.9864    1.7772    0.0000 C.3     1  UNL1        0.0662
     26 C           8.0345    0.4566    0.0000 C.3     1  UNL1       -0.0256
     27 C           7.2832   -1.8448    0.0000 C.3     1  UNL1        0.0544
     28 C           9.2825    0.6560    0.0000 C.3     1  UNL1       -0.0035
     29 C           2.9706   -0.4692    0.0000 C.3     1  UNL1        0.0373
     30 C           6.0604   -2.6716    0.0000 C.3     1  UNL1        0.0369
     31 C          10.1995    0.2571    0.0000 C.3     1  UNL1       -0.0523
     32 C           3.2497    3.3448    0.0000 C.3     1  UNL1        0.0368
     33 C           8.1492   -3.3448    0.0000 C.3     1  UNL1        0.0365
     34 H           6.5954   -1.2586    0.0000 H       1  UNL1        0.0340
     35 H           7.9783    1.0750    0.0000 H       1  UNL1        0.0499
     36 H           6.6352    1.3316    0.0000 H       1  UNL1        0.0312
     37 H           4.1586    0.7663    0.0000 H       1  UNL1        0.0358
     38 H           6.0540   -1.5386    0.0000 H       1  UNL1        0.0629
     39 H           6.7463    1.2004    0.0000 H       1  UNL1        0.0599
     40 H           6.1141    2.4540    0.0000 H       1  UNL1        0.0272
     41 H           6.5396    1.7418    0.0000 H       1  UNL1        0.0272
     42 H           5.1543    3.0523    0.0000 H       1  UNL1        0.0351
     43 H           4.2826    2.1023    0.0000 H       1  UNL1        0.0600
     44 H           3.8245   -0.3058    0.0000 H       1  UNL1        0.0319
     45 H           3.3718    0.3744    0.0000 H       1  UNL1        0.0319
     46 H           9.0980   -0.6640    0.0000 H       1  UNL1        0.0433
     47 H           8.5315   -1.3083    0.0000 H       1  UNL1        0.0433
     48 H           8.6451   -0.3033    0.0000 H       1  UNL1        0.0273
     49 H           8.2466   -0.9936    0.0000 H       1  UNL1        0.0273
     50 H           4.0646    2.3923    0.0000 H       1  UNL1        0.0600
     51 H           8.2466    1.0392    0.0000 H       1  UNL1        0.0290
     52 H           8.6451    0.3489    0.0000 H       1  UNL1        0.0290
     53 H           7.0711   -2.4274    0.0000 H       1  UNL1        0.0566
     54 H           6.6726   -1.7371    0.0000 H       1  UNL1        0.0566
     55 H           4.6107   -2.1178    0.0000 H       1  UNL1        0.2105
     56 H           8.8328    1.0829    0.0000 H       1  UNL1        0.0424
     57 H           9.6248    1.1730    0.0000 H       1  UNL1        0.0424
     58 H           7.8201    2.2004    0.0000 H       1  UNL1        0.2098
     59 H           3.3029    0.9033    0.0000 H       1  UNL1        0.2098
     60 H           2.8259   -1.0721    0.0000 H       1  UNL1        0.0524
     61 H           2.3677   -0.3245    0.0000 H       1  UNL1        0.0524
     62 H           3.1153    0.1337    0.0000 H       1  UNL1        0.0524
     63 H           6.5564   -2.2997    0.0000 H       1  UNL1        0.0524
     64 H           6.4322   -3.1677    0.0000 H       1  UNL1        0.0524
     65 H           5.5643   -3.0435    0.0000 H       1  UNL1        0.0524
     66 H          10.4468    0.8256    0.0000 H       1  UNL1        0.0242
     67 H          10.7680    0.0098    0.0000 H       1  UNL1        0.0242
     68 H           9.9522   -0.3114    0.0000 H       1  UNL1        0.0242
     69 H           2.6319    3.3970    0.0000 H       1  UNL1        0.0524
     70 H           3.3019    3.9626    0.0000 H       1  UNL1        0.0524
     71 H           3.8675    3.2926    0.0000 H       1  UNL1        0.0524
     72 H           8.7692   -3.3448    0.0000 H       1  UNL1        0.0523
     73 H           8.1492   -3.9648    0.0000 H       1  UNL1        0.0523
     74 H           7.5292   -3.3448    0.0000 H       1  UNL1        0.0523
@<TRIPOS>BOND
     1    12     1    1
     2     1    55    1
     3    15     2    1
     4     2    29    1
     5    16     3    1
     6     3    30    1
     7    18     4    1
     8     4    58    1
     9    21     5    1
    10     5    59    1
    11    25     6    1
    12     6    32    1
    13     7    27    1
    14     7    33    1
    15     8    11    1
    16     8    23    1
    17     8    28    1
    18     9    10    1
    19     9    11    1
    20     9    13    1
    21     9    18    1
    22    10    16    1
    23    10    17    1
    24    10    34    1
    25    11    12    1
    26    11    35    1
    27    12    15    1
    28    12    16    1
    29    13    14    1
    30    13    19    1
    31    13    36    1
    32    14    15    1
    33    14    21    1
    34    14    37    1
    35    15    22    1
    36    16    38    1
    37    17    23    1
    38    17    24    1
    39    17    27    1
    40    18    26    1
    41    18    39    1
    42    19    20    1
    43    19    40    1
    44    19    41    1
    45    20    21    1
    46    20    25    1
    47    20    42    1
    48    21    43    1
    49    22    25    1
    50    22    44    1
    51    22    45    1
    52    23    46    1
    53    23    47    1
    54    24    26    1
    55    24    48    1
    56    24    49    1
    57    25    50    1
    58    26    51    1
    59    26    52    1
    60    27    53    1
    61    27    54    1
    62    28    31    1
    63    28    56    1
    64    28    57    1
    65    29    60    1
    66    29    61    1
    67    29    62    1
    68    30    63    1
    69    30    64    1
    70    30    65    1
    71    31    66    1
    72    31    67    1
    73    31    68    1
    74    32    69    1
    75    32    70    1
    76    32    71    1
    77    33    72    1
    78    33    73    1
    79    33    74    1
