@<TRIPOS>MOLECULE
IMPHY012406
 50 52 0 0 0
SMALL
GASTEIGER

@<TRIPOS>ATOM
      1 O           2.0000   -1.9612    0.0000 O.2     1  UNL1       -0.2968
      2 O           7.2622   -1.9370    0.0000 O.2     1  UNL1       -0.2924
      3 C           4.6641   -0.4370    0.0000 C.3     1  UNL1       -0.0207
      4 C           4.6641   -1.4370    0.0000 C.3     1  UNL1       -0.0162
      5 C           5.5301    0.0630    0.0000 C.3     1  UNL1       -0.0071
      6 C           3.7702   -1.9717    0.0000 C.3     1  UNL1        0.0271
      7 C           3.7702    0.0976    0.0000 C.3     1  UNL1       -0.0401
      8 C           5.5301   -1.9370    0.0000 C.3     1  UNL1        0.0144
      9 C           6.3961   -0.4370    0.0000 C.2     1  UNL1       -0.0045
     10 C           5.5141    1.1045    0.0000 C.3     1  UNL1       -0.0445
     11 C           4.6641    0.5630    0.0000 C.3     1  UNL1       -0.0587
     12 C           2.8641   -0.4162    0.0000 C.3     1  UNL1        0.0069
     13 C           2.8641   -1.4578    0.0000 C.2     1  UNL1        0.1392
     14 C           6.3961   -1.4370    0.0000 C.2     1  UNL1        0.1596
     15 C           6.4121    1.6322    0.0000 C.3     1  UNL1       -0.0401
     16 C           7.3142    1.1114    0.0000 C.3     1  UNL1        0.0043
     17 C           3.2802   -2.8434    0.0000 C.3     1  UNL1       -0.0528
     18 C           4.2801   -2.8319    0.0000 C.3     1  UNL1       -0.0528
     19 C           7.3062    0.0698    0.0000 C.2     1  UNL1       -0.0676
     20 C           8.3142    1.1076    0.0000 C.3     1  UNL1       -0.0526
     21 C           7.8175    1.9755    0.0000 C.2     1  UNL1       -0.0815
     22 C           7.3209    2.8434    0.0000 C.2     1  UNL1       -0.1018
     23 H           4.6706   -2.2870    0.0000 H       1  UNL1        0.0320
     24 H           6.2630    0.4936    0.0000 H       1  UNL1        0.0355
     25 H           4.1748    0.5674    0.0000 H       1  UNL1        0.0275
     26 H           3.3765    0.5766    0.0000 H       1  UNL1        0.0275
     27 H           5.1316   -2.4120    0.0000 H       1  UNL1        0.0348
     28 H           5.9286   -2.4120    0.0000 H       1  UNL1        0.0348
     29 H           5.2960    1.6849    0.0000 H       1  UNL1        0.0272
     30 H           4.9049    0.9890    0.0000 H       1  UNL1        0.0272
     31 H           5.2841    0.5630    0.0000 H       1  UNL1        0.0235
     32 H           4.6641    1.1830    0.0000 H       1  UNL1        0.0235
     33 H           4.0441    0.5630    0.0000 H       1  UNL1        0.0235
     34 H           2.6550    0.1675    0.0000 H       1  UNL1        0.0342
     35 H           2.2532   -0.5223    0.0000 H       1  UNL1        0.0342
     36 H           6.8094    2.1082    0.0000 H       1  UNL1        0.0277
     37 H           6.0111    2.1051    0.0000 H       1  UNL1        0.0277
     38 H           2.7397   -2.5397    0.0000 H       1  UNL1        0.0239
     39 H           2.9764   -3.3839    0.0000 H       1  UNL1        0.0239
     40 H           3.8207   -3.1472    0.0000 H       1  UNL1        0.0239
     41 H           3.7468   -3.1481    0.0000 H       1  UNL1        0.0239
     42 H           4.5963   -3.3652    0.0000 H       1  UNL1        0.0239
     43 H           4.8134   -2.5157    0.0000 H       1  UNL1        0.0239
     44 H           7.8395   -0.2464    0.0000 H       1  UNL1        0.0584
     45 H           8.3118    0.4876    0.0000 H       1  UNL1        0.0241
     46 H           8.9342    1.1052    0.0000 H       1  UNL1        0.0241
     47 H           8.3166    1.7276    0.0000 H       1  UNL1        0.0241
     48 H           8.4375    1.9731    0.0000 H       1  UNL1        0.0575
     49 H           7.6329    3.3792    0.0000 H       1  UNL1        0.0532
     50 H           6.7009    2.8458    0.0000 H       1  UNL1        0.0532
@<TRIPOS>BOND
     1     1    13    2
     2     2    14    2
     3     3     4    1
     4     3     5    1
     5     3     7    1
     6     3    11    1
     7     4     6    1
     8     4     8    1
     9     4    23    1
    10     5     9    1
    11     5    10    1
    12     5    24    1
    13     6    13    1
    14     6    17    1
    15     6    18    1
    16     7    12    1
    17     7    25    1
    18     7    26    1
    19     8    14    1
    20     8    27    1
    21     8    28    1
    22     9    14    1
    23     9    19    2
    24    10    15    1
    25    10    29    1
    26    10    30    1
    27    11    31    1
    28    11    32    1
    29    11    33    1
    30    12    13    1
    31    12    34    1
    32    12    35    1
    33    15    16    1
    34    15    36    1
    35    15    37    1
    36    16    19    1
    37    16    20    1
    38    16    21    1
    39    17    38    1
    40    17    39    1
    41    17    40    1
    42    18    41    1
    43    18    42    1
    44    18    43    1
    45    19    44    1
    46    20    45    1
    47    20    46    1
    48    20    47    1
    49    21    22    2
    50    21    48    1
    51    22    49    1
    52    22    50    1
