@<TRIPOS>MOLECULE
IMPHY002448
 104 109 0 0 0
SMALL
GASTEIGER

@<TRIPOS>ATOM
      1 O           6.4013    3.6697    0.0000 O.3     1  UNL1       -0.3646
      2 O           8.8840    2.4543    0.0000 O.3     1  UNL1       -0.4640
      3 O           6.8671   -4.3386    0.0000 O.3     1  UNL1       -0.3449
      4 O          10.3633    1.4608    0.0000 O.2     1  UNL1       -0.2508
      5 O           9.1410    4.6486    0.0000 O.3     1  UNL1       -0.3877
      6 O           5.1350   -4.3386    0.0000 O.3     1  UNL1       -0.3405
      7 O           6.8671   -6.3386    0.0000 O.3     1  UNL1       -0.3841
      8 O           5.1350   -7.3386    0.0000 O.3     1  UNL1       -0.3864
      9 O           3.4030   -6.3386    0.0000 O.3     1  UNL1       -0.3865
     10 O           2.5369   -4.8386    0.0000 O.3     1  UNL1       -0.3924
     11 C           7.7628    0.2273    0.0000 C.3     1  UNL1       -0.0191
     12 C           6.8948   -0.2694    0.0000 C.3     1  UNL1       -0.0293
     13 C           7.7829    1.2687    0.0000 C.3     1  UNL1        0.0258
     14 C           6.8910   -1.2694    0.0000 C.3     1  UNL1       -0.0252
     15 C           6.8869    1.7999    0.0000 C.3     1  UNL1       -0.0022
     16 C           7.7551   -1.7727    0.0000 C.3     1  UNL1       -0.0278
     17 C           8.6269   -0.2761    0.0000 C.3     1  UNL1       -0.0464
     18 C           5.9868    0.2410    0.0000 C.3     1  UNL1       -0.0488
     19 C           8.6230   -1.2761    0.0000 C.3     1  UNL1       -0.0486
     20 C           5.9828    1.2826    0.0000 C.3     1  UNL1       -0.0468
     21 C           6.8946    2.7999    0.0000 C.3     1  UNL1        0.0916
     22 C           7.7671   -2.8143    0.0000 C.3     1  UNL1       -0.0052
     23 C           5.9790   -1.7727    0.0000 C.3     1  UNL1       -0.0447
     24 C           8.6900    0.8479    0.0000 C.3     1  UNL1        0.0545
     25 C           7.9027    2.2615    0.0000 C.3     1  UNL1        0.0994
     26 C           8.7628    0.2234    0.0000 C.3     1  UNL1       -0.0587
     27 C           7.4012    3.6620    0.0000 C.3     1  UNL1        0.0961
     28 C           6.8671   -3.3386    0.0000 C.3     1  UNL1        0.0672
     29 C           6.0269   -0.7660    0.0000 C.3     1  UNL1       -0.0590
     30 C           5.9670   -2.8143    0.0000 C.3     1  UNL1       -0.0255
     31 C           8.2738   -3.6764    0.0000 C.3     1  UNL1       -0.0572
     32 C           8.7671   -2.8066    0.0000 C.3     1  UNL1       -0.0572
     33 C           9.3705    1.5807    0.0000 C.2     1  UNL1        0.3078
     34 C           7.4090    4.6620    0.0000 C.3     1  UNL1        0.0082
     35 C           8.2634    3.1554    0.0000 C.3     1  UNL1       -0.0333
     36 C           8.2788    5.1553    0.0000 C.3     1  UNL1        0.0763
     37 C           6.0010   -4.8386    0.0000 C.3     1  UNL1        0.1882
     38 C           6.0010   -5.8386    0.0000 C.3     1  UNL1        0.1341
     39 C           8.2865    6.1553    0.0000 C.2     1  UNL1       -0.0571
     40 C           5.1350   -6.3386    0.0000 C.3     1  UNL1        0.1141
     41 C           4.2690   -4.8386    0.0000 C.3     1  UNL1        0.1130
     42 C           4.2690   -5.8386    0.0000 C.3     1  UNL1        0.1119
     43 C           9.1564    6.6486    0.0000 C.2     1  UNL1       -0.0772
     44 C           3.4030   -4.3386    0.0000 C.3     1  UNL1        0.0730
     45 C           9.1641    7.6486    0.0000 C.3     1  UNL1       -0.0440
     46 C          10.0185    6.1419    0.0000 C.3     1  UNL1       -0.0440
     47 H           7.6293   -0.6972    0.0000 H       1  UNL1        0.0312
     48 H           6.1532    2.2292    0.0000 H       1  UNL1        0.0333
     49 H           8.4928   -2.1949    0.0000 H       1  UNL1        0.0312
     50 H           9.2370   -0.3861    0.0000 H       1  UNL1        0.0271
     51 H           8.8412    0.3057    0.0000 H       1  UNL1        0.0271
     52 H           5.3755    0.3447    0.0000 H       1  UNL1        0.0268
     53 H           5.7800   -0.3435    0.0000 H       1  UNL1        0.0268
     54 H           8.8328   -1.8595    0.0000 H       1  UNL1        0.0268
     55 H           9.2340   -1.1708    0.0000 H       1  UNL1        0.0268
     56 H           5.7715    1.8655    0.0000 H       1  UNL1        0.0269
     57 H           5.3724    1.1741    0.0000 H       1  UNL1        0.0269
     58 H           6.0719    2.5862    0.0000 H       1  UNL1        0.0628
     59 H           5.7768   -1.1866    0.0000 H       1  UNL1        0.0271
     60 H           5.3670   -1.8717    0.0000 H       1  UNL1        0.0271
     61 H           8.3718    0.3158    0.0000 H       1  UNL1        0.0384
     62 H           9.1859    0.4758    0.0000 H       1  UNL1        0.0384
     63 H           7.8474    2.8790    0.0000 H       1  UNL1        0.0703
     64 H           7.2828    2.2711    0.0000 H       1  UNL1        0.0703
     65 H           8.7604   -0.3966    0.0000 H       1  UNL1        0.0235
     66 H           9.3828    0.2210    0.0000 H       1  UNL1        0.0235
     67 H           8.7652    0.8434    0.0000 H       1  UNL1        0.0235
     68 H           7.4046   -3.6475    0.0000 H       1  UNL1        0.0602
     69 H           6.3390   -0.2303    0.0000 H       1  UNL1        0.0235
     70 H           5.4912   -0.4540    0.0000 H       1  UNL1        0.0235
     71 H           5.7148   -1.3018    0.0000 H       1  UNL1        0.0235
     72 H           5.3574   -2.7011    0.0000 H       1  UNL1        0.0290
     73 H           5.7512   -3.3955    0.0000 H       1  UNL1        0.0290
     74 H           7.7393   -3.9906    0.0000 H       1  UNL1        0.0236
     75 H           8.5879   -4.2110    0.0000 H       1  UNL1        0.0236
     76 H           8.8083   -3.3623    0.0000 H       1  UNL1        0.0236
     77 H           8.7719   -3.4266    0.0000 H       1  UNL1        0.0236
     78 H           9.3871   -2.8018    0.0000 H       1  UNL1        0.0236
     79 H           8.7623   -2.1866    0.0000 H       1  UNL1        0.0236
     80 H           7.2014    5.2462    0.0000 H       1  UNL1        0.0322
     81 H           6.7976    4.5590    0.0000 H       1  UNL1        0.0322
     82 H           7.9492    2.6208    0.0000 H       1  UNL1        0.0258
     83 H           8.7979    2.8412    0.0000 H       1  UNL1        0.0258
     84 H           8.5775    3.6899    0.0000 H       1  UNL1        0.0258
     85 H           8.8181    5.4612    0.0000 H       1  UNL1        0.0638
     86 H           6.5380   -5.1486    0.0000 H       1  UNL1        0.0937
     87 H           6.0010   -6.4586    0.0000 H       1  UNL1        0.0671
     88 H           7.7520    6.4694    0.0000 H       1  UNL1        0.0597
     89 H           9.6803    4.9545    0.0000 H       1  UNL1        0.2102
     90 H           4.5981   -6.6486    0.0000 H       1  UNL1        0.0648
     91 H           4.2690   -4.2186    0.0000 H       1  UNL1        0.0647
     92 H           3.7320   -5.5286    0.0000 H       1  UNL1        0.0647
     93 H           6.8671   -6.9586    0.0000 H       1  UNL1        0.2101
     94 H           3.8015   -3.8636    0.0000 H       1  UNL1        0.0584
     95 H           3.0044   -3.8636    0.0000 H       1  UNL1        0.0584
     96 H           4.5981   -7.6486    0.0000 H       1  UNL1        0.2100
     97 H           9.7841    7.6438    0.0000 H       1  UNL1        0.0274
     98 H           9.7044    5.6074    0.0000 H       1  UNL1        0.0274
     99 H          10.5530    5.8278    0.0000 H       1  UNL1        0.0274
    100 H          10.3326    6.6765    0.0000 H       1  UNL1        0.0274
    101 H           9.1689    8.2686    0.0000 H       1  UNL1        0.0274
    102 H           8.5441    7.6533    0.0000 H       1  UNL1        0.0274
    103 H           3.4030   -6.9586    0.0000 H       1  UNL1        0.2100
    104 H           2.0000   -4.5286    0.0000 H       1  UNL1        0.2095
@<TRIPOS>BOND
     1     1    21    1
     2     1    27    1
     3     2    25    1
     4     2    33    1
     5    28     3    1
     6    37     3    1
     7     4    33    2
     8    36     5    1
     9     5    89    1
    10     6    37    1
    11     6    41    1
    12    38     7    1
    13     7    93    1
    14    40     8    1
    15     8    96    1
    16    42     9    1
    17     9   103    1
    18    10    44    1
    19    10   104    1
    20    11    12    1
    21    11    13    1
    22    11    17    1
    23    11    26    1
    24    12    14    1
    25    12    18    1
    26    12    47    1
    27    13    15    1
    28    13    24    1
    29    13    25    1
    30    14    16    1
    31    14    23    1
    32    14    29    1
    33    15    20    1
    34    15    21    1
    35    15    48    1
    36    16    19    1
    37    16    22    1
    38    16    49    1
    39    17    19    1
    40    17    50    1
    41    17    51    1
    42    18    20    1
    43    18    52    1
    44    18    53    1
    45    19    54    1
    46    19    55    1
    47    20    56    1
    48    20    57    1
    49    21    27    1
    50    21    58    1
    51    22    28    1
    52    22    31    1
    53    22    32    1
    54    23    30    1
    55    23    59    1
    56    23    60    1
    57    24    33    1
    58    24    61    1
    59    24    62    1
    60    25    63    1
    61    25    64    1
    62    26    65    1
    63    26    66    1
    64    26    67    1
    65    27    34    1
    66    27    35    1
    67    28    30    1
    68    28    68    1
    69    29    69    1
    70    29    70    1
    71    29    71    1
    72    30    72    1
    73    30    73    1
    74    31    74    1
    75    31    75    1
    76    31    76    1
    77    32    77    1
    78    32    78    1
    79    32    79    1
    80    34    36    1
    81    34    80    1
    82    34    81    1
    83    35    82    1
    84    35    83    1
    85    35    84    1
    86    36    39    1
    87    36    85    1
    88    37    38    1
    89    37    86    1
    90    38    40    1
    91    38    87    1
    92    39    43    2
    93    39    88    1
    94    40    42    1
    95    40    90    1
    96    41    42    1
    97    41    44    1
    98    41    91    1
    99    42    92    1
   100    43    45    1
   101    43    46    1
   102    44    94    1
   103    44    95    1
   104    45    97    1
   105    45   101    1
   106    45   102    1
   107    46    98    1
   108    46    99    1
   109    46   100    1
