@<TRIPOS>MOLECULE
IMPHY006928
 35 36 0 0 0
SMALL
GASTEIGER

@<TRIPOS>ATOM
      1 O           7.2241   -1.5347    0.0000 O.2     1  UNL1       -0.4183
      2 O           5.4641   -2.5000    0.0000 O.3     1  UNL1       -0.4885
      3 O           3.7320   -1.5000    0.0000 O.3     1  UNL1       -0.5030
      4 O           8.9942   -1.5241    0.0000 O.2     1  UNL1       -0.2452
      5 C           4.5981    0.0000    0.0000 C.ar    1  UNL1        0.0022
      6 C           3.7320    0.5000    0.0000 C.3     1  UNL1       -0.0056
      7 C           6.3301    0.0000    0.0000 C.ar    1  UNL1        0.0218
      8 C           5.4641    0.5000    0.0000 C.ar    1  UNL1       -0.0439
      9 C           4.5981   -1.0000    0.0000 C.ar    1  UNL1        0.1658
     10 C           6.3301   -1.0000    0.0000 C.ar    1  UNL1        0.1841
     11 C           5.4641   -1.5000    0.0000 C.ar    1  UNL1        0.2049
     12 C           3.7320    1.5000    0.0000 C.2     1  UNL1       -0.0809
     13 C           7.2241    0.5347    0.0000 C.ar    1  UNL1       -0.0442
     14 C           2.8660    2.0000    0.0000 C.2     1  UNL1       -0.0793
     15 C           8.1301    0.0208    0.0000 C.ar    1  UNL1        0.0236
     16 C           8.1301   -1.0208    0.0000 C.ar    1  UNL1        0.3373
     17 C           2.8660    3.0000    0.0000 C.3     1  UNL1       -0.0440
     18 C           2.0000    1.5000    0.0000 C.3     1  UNL1       -0.0440
     19 C           4.5981   -3.0000    0.0000 C.3     1  UNL1        0.0791
     20 H           3.1215    0.6077    0.0000 H       1  UNL1        0.0357
     21 H           3.5200   -0.0826    0.0000 H       1  UNL1        0.0357
     22 H           5.4641    1.1200    0.0000 H       1  UNL1        0.0629
     23 H           4.2690    1.8100    0.0000 H       1  UNL1        0.0575
     24 H           7.2169    1.1546    0.0000 H       1  UNL1        0.0627
     25 H           8.6659    0.3329    0.0000 H       1  UNL1        0.0689
     26 H           1.6900    2.0369    0.0000 H       1  UNL1        0.0274
     27 H           1.4631    1.1900    0.0000 H       1  UNL1        0.0274
     28 H           3.4860    3.0000    0.0000 H       1  UNL1        0.0274
     29 H           2.8660    3.6200    0.0000 H       1  UNL1        0.0274
     30 H           2.2460    3.0000    0.0000 H       1  UNL1        0.0274
     31 H           2.3100    0.9631    0.0000 H       1  UNL1        0.0274
     32 H           3.1951   -1.1900    0.0000 H       1  UNL1        0.2923
     33 H           4.2881   -2.4631    0.0000 H       1  UNL1        0.0660
     34 H           4.0611   -3.3100    0.0000 H       1  UNL1        0.0660
     35 H           4.9081   -3.5369    0.0000 H       1  UNL1        0.0660
@<TRIPOS>BOND
     1     1    10   ar
     2     1    16   ar
     3     2    11    1
     4     2    19    1
     5     3     9    1
     6     3    32    1
     7     4    16    2
     8     5     6    1
     9     5     8   ar
    10     5     9   ar
    11     6    12    1
    12     6    20    1
    13     6    21    1
    14     7     8   ar
    15     7    10   ar
    16     7    13   ar
    17     8    22    1
    18     9    11   ar
    19    10    11   ar
    20    12    14    2
    21    12    23    1
    22    13    15   ar
    23    13    24    1
    24    14    17    1
    25    14    18    1
    26    15    16   ar
    27    15    25    1
    28    17    28    1
    29    17    29    1
    30    17    30    1
    31    18    26    1
    32    18    27    1
    33    18    31    1
    34    19    33    1
    35    19    34    1
    36    19    35    1
