@<TRIPOS>MOLECULE
IMPHY002710
 84 88 0 0 0
SMALL
GASTEIGER

@<TRIPOS>ATOM
      1 O          10.5929   -0.3215    0.0000 O.3     1  UNL1       -0.3915
      2 O           6.1847   -2.8666    0.0000 O.2     1  UNL1       -0.2971
      3 O          12.4513    1.5269    0.0000 O.3     1  UNL1       -0.3888
      4 O           2.5357   -1.8496    0.0000 O.3     1  UNL1       -0.3912
      5 C           7.9288    0.2027    0.0000 C.3     1  UNL1       -0.0203
      6 C           7.0628   -0.2973    0.0000 C.3     1  UNL1       -0.0163
      7 C           7.9288    1.2027    0.0000 C.3     1  UNL1       -0.0293
      8 C           8.8228    1.7374    0.0000 C.3     1  UNL1       -0.0232
      9 C           6.1968    0.2027    0.0000 C.3     1  UNL1       -0.0287
     10 C           9.7288    1.2235    0.0000 C.3     1  UNL1       -0.0039
     11 C           5.2868   -0.3042    0.0000 C.3     1  UNL1       -0.0186
     12 C           8.8228   -0.3320    0.0000 C.3     1  UNL1       -0.0204
     13 C           7.0628    1.7027    0.0000 C.3     1  UNL1       -0.0489
     14 C           6.1968    1.2027    0.0000 C.3     1  UNL1       -0.0489
     15 C           9.7288    0.1819    0.0000 C.3     1  UNL1        0.0594
     16 C           5.2787   -1.3458    0.0000 C.3     1  UNL1        0.0306
     17 C          10.4911    1.9243    0.0000 C.3     1  UNL1       -0.0070
     18 C           9.0329    2.7513    0.0000 C.3     1  UNL1       -0.0467
     19 C           7.0789   -1.3388    0.0000 C.3     1  UNL1        0.0123
     20 C          10.0619    2.8666    0.0000 C.3     1  UNL1       -0.0468
     21 C           8.2709   -0.7370    0.0000 C.3     1  UNL1       -0.0587
     22 C           7.7056   -1.0634    0.0000 C.3     1  UNL1       -0.0584
     23 C           4.3599    0.2599    0.0000 C.3     1  UNL1       -0.0443
     24 C           4.3433   -1.8955    0.0000 C.3     1  UNL1        0.0011
     25 C           7.9529    2.2307    0.0000 C.3     1  UNL1       -0.0589
     26 C           6.1808   -1.8666    0.0000 C.2     1  UNL1        0.1381
     27 C           5.2945    0.6958    0.0000 C.3     1  UNL1       -0.0586
     28 C          11.4712    1.7256    0.0000 C.3     1  UNL1        0.0637
     29 C           3.4037   -1.3530    0.0000 C.3     1  UNL1        0.0610
     30 C           3.4120   -0.2680    0.0000 C.3     1  UNL1       -0.0258
     31 C           3.8467   -2.7634    0.0000 C.3     1  UNL1       -0.0568
     32 C           4.8466   -2.7596    0.0000 C.3     1  UNL1       -0.0568
     33 C          11.6699    2.7057    0.0000 C.3     1  UNL1       -0.0361
     34 C          11.2725    0.7455    0.0000 C.3     1  UNL1       -0.0361
     35 H           8.6682    0.7834    0.0000 H       1  UNL1        0.0312
     36 H           6.9329    0.6277    0.0000 H       1  UNL1        0.0312
     37 H          10.5071    0.8818    0.0000 H       1  UNL1        0.0335
     38 H           8.4182   -0.8018    0.0000 H       1  UNL1        0.0296
     39 H           9.2164   -0.8110    0.0000 H       1  UNL1        0.0296
     40 H           7.4613    2.1776    0.0000 H       1  UNL1        0.0268
     41 H           6.6643    2.1776    0.0000 H       1  UNL1        0.0268
     42 H           5.9847    1.7853    0.0000 H       1  UNL1        0.0268
     43 H           5.5862    1.0950    0.0000 H       1  UNL1        0.0268
     44 H          10.2664    0.4908    0.0000 H       1  UNL1        0.0596
     45 H           5.2820   -2.1958    0.0000 H       1  UNL1        0.0389
     46 H          11.0201    2.5896    0.0000 H       1  UNL1        0.0332
     47 H           9.0290    3.3713    0.0000 H       1  UNL1        0.0271
     48 H           8.4159    2.8126    0.0000 H       1  UNL1        0.0271
     49 H           7.2969   -1.9192    0.0000 H       1  UNL1        0.0347
     50 H           7.6880   -1.2233    0.0000 H       1  UNL1        0.0347
     51 H          10.6500    3.0629    0.0000 H       1  UNL1        0.0269
     52 H           9.9285    3.4720    0.0000 H       1  UNL1        0.0269
     53 H           7.6884   -0.9491    0.0000 H       1  UNL1        0.0235
     54 H           8.4830   -1.3196    0.0000 H       1  UNL1        0.0235
     55 H           8.8535   -0.5249    0.0000 H       1  UNL1        0.0235
     56 H           7.2306   -1.4619    0.0000 H       1  UNL1        0.0235
     57 H           8.1041   -1.5383    0.0000 H       1  UNL1        0.0235
     58 H           8.1805   -0.6648    0.0000 H       1  UNL1        0.0235
     59 H           4.7681    0.7266    0.0000 H       1  UNL1        0.0272
     60 H           3.9700    0.7420    0.0000 H       1  UNL1        0.0272
     61 H           8.2588    2.7700    0.0000 H       1  UNL1        0.0235
     62 H           7.4136    2.5365    0.0000 H       1  UNL1        0.0235
     63 H           7.6471    1.6914    0.0000 H       1  UNL1        0.0235
     64 H           5.9145    0.6910    0.0000 H       1  UNL1        0.0235
     65 H           5.2993    1.3158    0.0000 H       1  UNL1        0.0235
     66 H           4.6745    0.7006    0.0000 H       1  UNL1        0.0235
     67 H           3.4025   -1.9730    0.0000 H       1  UNL1        0.0599
     68 H           3.2075    0.3173    0.0000 H       1  UNL1        0.0290
     69 H           2.8004   -0.3694    0.0000 H       1  UNL1        0.0290
     70 H          10.5905   -0.9415    0.0000 H       1  UNL1        0.2098
     71 H           4.3109   -3.0716    0.0000 H       1  UNL1        0.0236
     72 H           5.1587   -3.2953    0.0000 H       1  UNL1        0.0236
     73 H           3.3085   -2.4555    0.0000 H       1  UNL1        0.0236
     74 H           5.3824   -2.4475    0.0000 H       1  UNL1        0.0236
     75 H           3.5387   -3.3016    0.0000 H       1  UNL1        0.0236
     76 H           4.3848   -3.0713    0.0000 H       1  UNL1        0.0236
     77 H          10.6649    0.8687    0.0000 H       1  UNL1        0.0257
     78 H          12.2775    2.5825    0.0000 H       1  UNL1        0.0257
     79 H          11.7931    3.3133    0.0000 H       1  UNL1        0.0257
     80 H          11.0622    2.8288    0.0000 H       1  UNL1        0.0257
     81 H          11.1494    0.1379    0.0000 H       1  UNL1        0.0257
     82 H          11.8802    0.6224    0.0000 H       1  UNL1        0.0257
     83 H          12.8618    1.9916    0.0000 H       1  UNL1        0.2101
     84 H           2.0000   -1.5376    0.0000 H       1  UNL1        0.2098
@<TRIPOS>BOND
     1    15     1    1
     2     1    70    1
     3     2    26    2
     4     3    28    1
     5     3    83    1
     6    29     4    1
     7     4    84    1
     8     5     6    1
     9     5     7    1
    10     5    12    1
    11     5    21    1
    12     6     9    1
    13     6    19    1
    14     6    22    1
    15     7     8    1
    16     7    13    1
    17     7    35    1
    18     8    10    1
    19     8    18    1
    20     8    25    1
    21     9    11    1
    22     9    14    1
    23     9    36    1
    24    10    15    1
    25    10    17    1
    26    10    37    1
    27    11    16    1
    28    11    23    1
    29    11    27    1
    30    12    15    1
    31    12    38    1
    32    12    39    1
    33    13    14    1
    34    13    40    1
    35    13    41    1
    36    14    42    1
    37    14    43    1
    38    15    44    1
    39    16    24    1
    40    16    26    1
    41    16    45    1
    42    17    20    1
    43    17    28    1
    44    17    46    1
    45    18    20    1
    46    18    47    1
    47    18    48    1
    48    19    26    1
    49    19    49    1
    50    19    50    1
    51    20    51    1
    52    20    52    1
    53    21    53    1
    54    21    54    1
    55    21    55    1
    56    22    56    1
    57    22    57    1
    58    22    58    1
    59    23    30    1
    60    23    59    1
    61    23    60    1
    62    24    29    1
    63    24    31    1
    64    24    32    1
    65    25    61    1
    66    25    62    1
    67    25    63    1
    68    27    64    1
    69    27    65    1
    70    27    66    1
    71    28    33    1
    72    28    34    1
    73    29    30    1
    74    29    67    1
    75    30    68    1
    76    30    69    1
    77    31    73    1
    78    31    75    1
    79    31    76    1
    80    32    71    1
    81    32    72    1
    82    32    74    1
    83    33    78    1
    84    33    79    1
    85    33    80    1
    86    34    77    1
    87    34    81    1
    88    34    82    1
