@<TRIPOS>MOLECULE
IMPHY008095
 124 129 0 0 0
SMALL
GASTEIGER

@<TRIPOS>ATOM
      1 O          11.5590   -0.7290    0.0000 O.3     1  UNL1       -0.3915
      2 O          10.6636    4.8375    0.0000 O.3     1  UNL1       -0.3915
      3 O           9.4651   -2.1558    0.0000 O.3     1  UNL1       -0.3422
      4 O          14.4479    5.0045    0.0000 O.3     1  UNL1       -0.3912
      5 O           7.7331   -2.1558    0.0000 O.3     1  UNL1       -0.3405
      6 O           9.4651   -4.1558    0.0000 O.3     1  UNL1       -0.3841
      7 O           7.7331   -5.1558    0.0000 O.3     1  UNL1       -0.3864
      8 O           6.0010   -4.1558    0.0000 O.3     1  UNL1       -0.3865
      9 O           6.0010   -1.1558    0.0000 O.3     1  UNL1       -0.3461
     10 O           4.2690   -1.1558    0.0000 O.3     1  UNL1       -0.3461
     11 O           6.0010    0.8442    0.0000 O.3     1  UNL1       -0.3841
     12 O           4.2690    1.8442    0.0000 O.3     1  UNL1       -0.3864
     13 O           2.5369    0.8442    0.0000 O.3     1  UNL1       -0.3869
     14 C          10.6271    2.1226    0.0000 C.3     1  UNL1       -0.0206
     15 C           9.9592    1.3783    0.0000 C.3     1  UNL1       -0.0208
     16 C          11.6056    1.9164    0.0000 C.3     1  UNL1       -0.0269
     17 C          12.3131    2.6808    0.0000 C.3     1  UNL1       -0.0228
     18 C          10.2699    0.4278    0.0000 C.3     1  UNL1       -0.0036
     19 C          11.9971    3.6734    0.0000 C.3     1  UNL1       -0.0018
     20 C          10.2882    3.1076    0.0000 C.3     1  UNL1       -0.0204
     21 C          11.9162    0.9659    0.0000 C.3     1  UNL1       -0.0227
     22 C           9.4651   -0.1558    0.0000 C.3     1  UNL1       -0.0063
     23 C          11.2484    0.2216    0.0000 C.3     1  UNL1        0.0592
     24 C           8.9651    1.3740    0.0000 C.3     1  UNL1       -0.0464
     25 C          10.9779    3.8882    0.0000 C.3     1  UNL1        0.0597
     26 C          12.7155    4.4865    0.0000 C.3     1  UNL1       -0.0033
     27 C           8.6604    0.4278    0.0000 C.3     1  UNL1       -0.0467
     28 C          13.3693    2.4326    0.0000 C.3     1  UNL1       -0.0446
     29 C           9.7781    2.6510    0.0000 C.3     1  UNL1       -0.0587
     30 C           9.3422    2.1652    0.0000 C.3     1  UNL1       -0.0587
     31 C          12.6164    1.7280    0.0000 C.3     1  UNL1       -0.0589
     32 C           9.4651   -1.1558    0.0000 C.3     1  UNL1        0.0733
     33 C          13.7772    4.2628    0.0000 C.3     1  UNL1        0.0607
     34 C          14.1063    3.2289    0.0000 C.3     1  UNL1       -0.0258
     35 C          12.9179    5.4658    0.0000 C.3     1  UNL1       -0.0571
     36 C          11.9686    5.1515    0.0000 C.3     1  UNL1       -0.0571
     37 C          10.4651   -1.1558    0.0000 C.3     1  UNL1       -0.0202
     38 C           8.4651   -1.1558    0.0000 C.3     1  UNL1       -0.0354
     39 C          10.9651   -2.0218    0.0000 C.3     1  UNL1       -0.0319
     40 C           8.5991   -2.6558    0.0000 C.3     1  UNL1        0.1885
     41 C           8.5991   -3.6558    0.0000 C.3     1  UNL1        0.1341
     42 C          11.9651   -2.0218    0.0000 C.2     1  UNL1       -0.0852
     43 C           7.7331   -4.1558    0.0000 C.3     1  UNL1        0.1141
     44 C           6.8671   -2.6558    0.0000 C.3     1  UNL1        0.1134
     45 C           6.8671   -3.6558    0.0000 C.3     1  UNL1        0.1119
     46 C          12.4651   -2.8879    0.0000 C.2     1  UNL1       -0.0796
     47 C           6.0010   -2.1558    0.0000 C.3     1  UNL1        0.0796
     48 C          13.4651   -2.8879    0.0000 C.3     1  UNL1       -0.0440
     49 C          11.9651   -3.7539    0.0000 C.3     1  UNL1       -0.0440
     50 C           5.1350   -0.6558    0.0000 C.3     1  UNL1        0.1876
     51 C           5.1350    0.3442    0.0000 C.3     1  UNL1        0.1341
     52 C           4.2690    0.8442    0.0000 C.3     1  UNL1        0.1137
     53 C           3.4030   -0.6558    0.0000 C.3     1  UNL1        0.0792
     54 C           3.4030    0.3442    0.0000 C.3     1  UNL1        0.1069
     55 H          12.4359    1.7347    0.0000 H       1  UNL1        0.0312
     56 H          10.4470   -0.4036    0.0000 H       1  UNL1        0.0335
     57 H          11.7299    4.4803    0.0000 H       1  UNL1        0.0337
     58 H           9.9007    3.5915    0.0000 H       1  UNL1        0.0296
     59 H           9.7451    2.8086    0.0000 H       1  UNL1        0.0296
     60 H          12.2988    0.4780    0.0000 H       1  UNL1        0.0293
     61 H          12.4631    1.2579    0.0000 H       1  UNL1        0.0293
     62 H           8.7080   -0.5420    0.0000 H       1  UNL1        0.0332
     63 H          10.8343   -0.2399    0.0000 H       1  UNL1        0.0596
     64 H           9.0276    1.9908    0.0000 H       1  UNL1        0.0271
     65 H           8.3583    1.5010    0.0000 H       1  UNL1        0.0271
     66 H          11.3911    4.3505    0.0000 H       1  UNL1        0.0596
     67 H           8.0935    0.6788    0.0000 H       1  UNL1        0.0269
     68 H           8.3512   -0.1096    0.0000 H       1  UNL1        0.0269
     69 H          13.1263    1.8622    0.0000 H       1  UNL1        0.0271
     70 H          13.8897    2.0956    0.0000 H       1  UNL1        0.0271
     71 H          10.1057    3.1774    0.0000 H       1  UNL1        0.0235
     72 H           9.2517    2.9787    0.0000 H       1  UNL1        0.0235
     73 H           9.4504    2.1247    0.0000 H       1  UNL1        0.0235
     74 H           9.8301    2.5478    0.0000 H       1  UNL1        0.0235
     75 H           8.9596    2.6532    0.0000 H       1  UNL1        0.0235
     76 H           8.8543    1.7827    0.0000 H       1  UNL1        0.0235
     77 H          12.0256    1.5399    0.0000 H       1  UNL1        0.0235
     78 H          12.8045    1.1372    0.0000 H       1  UNL1        0.0235
     79 H          13.2072    1.9160    0.0000 H       1  UNL1        0.0235
     80 H          14.3831    4.1314    0.0000 H       1  UNL1        0.0599
     81 H          14.4825    2.7361    0.0000 H       1  UNL1        0.0290
     82 H          14.6562    3.5153    0.0000 H       1  UNL1        0.0290
     83 H          12.3809    5.6146    0.0000 H       1  UNL1        0.0236
     84 H          11.5056    5.5638    0.0000 H       1  UNL1        0.0236
     85 H          11.5563    4.6884    0.0000 H       1  UNL1        0.0236
     86 H          13.5251    5.3403    0.0000 H       1  UNL1        0.0236
     87 H          13.0434    6.0730    0.0000 H       1  UNL1        0.0236
     88 H          12.3108    5.5914    0.0000 H       1  UNL1        0.0236
     89 H          12.1657   -0.8568    0.0000 H       1  UNL1        0.2098
     90 H          10.0564    4.9630    0.0000 H       1  UNL1        0.2098
     91 H          11.0477   -0.9438    0.0000 H       1  UNL1        0.0296
     92 H          10.3575   -0.5452    0.0000 H       1  UNL1        0.0296
     93 H           8.4651   -0.5358    0.0000 H       1  UNL1        0.0257
     94 H           7.8451   -1.1558    0.0000 H       1  UNL1        0.0257
     95 H           8.4651   -1.7758    0.0000 H       1  UNL1        0.0257
     96 H          15.0540    4.8743    0.0000 H       1  UNL1        0.2098
     97 H          10.3825   -2.2339    0.0000 H       1  UNL1        0.0308
     98 H          11.0728   -2.6324    0.0000 H       1  UNL1        0.0308
     99 H           8.5991   -2.0358    0.0000 H       1  UNL1        0.0938
    100 H           8.5991   -4.2758    0.0000 H       1  UNL1        0.0671
    101 H          12.2751   -1.4849    0.0000 H       1  UNL1        0.0571
    102 H           7.1962   -4.4658    0.0000 H       1  UNL1        0.0648
    103 H           6.8671   -2.0358    0.0000 H       1  UNL1        0.0647
    104 H           6.3301   -3.3458    0.0000 H       1  UNL1        0.0647
    105 H           9.4651   -4.7758    0.0000 H       1  UNL1        0.2101
    106 H           5.3905   -2.0482    0.0000 H       1  UNL1        0.0587
    107 H           5.7890   -2.7384    0.0000 H       1  UNL1        0.0587
    108 H           7.1962   -5.4658    0.0000 H       1  UNL1        0.2100
    109 H          13.4651   -3.5079    0.0000 H       1  UNL1        0.0274
    110 H          14.0851   -2.8879    0.0000 H       1  UNL1        0.0274
    111 H          13.4651   -2.2679    0.0000 H       1  UNL1        0.0274
    112 H          11.4282   -3.4439    0.0000 H       1  UNL1        0.0274
    113 H          11.6551   -4.2908    0.0000 H       1  UNL1        0.0274
    114 H          12.5021   -4.0639    0.0000 H       1  UNL1        0.0274
    115 H           5.4641   -3.8458    0.0000 H       1  UNL1        0.2100
    116 H           5.6720   -0.3458    0.0000 H       1  UNL1        0.0937
    117 H           5.1350    0.9642    0.0000 H       1  UNL1        0.0671
    118 H           3.7320    1.1542    0.0000 H       1  UNL1        0.0647
    119 H           2.7924   -0.5482    0.0000 H       1  UNL1        0.0587
    120 H           3.1909   -1.2384    0.0000 H       1  UNL1        0.0587
    121 H           2.8660    0.0342    0.0000 H       1  UNL1        0.0643
    122 H           6.0010    1.4642    0.0000 H       1  UNL1        0.2101
    123 H           3.7320    2.1542    0.0000 H       1  UNL1        0.2100
    124 H           2.0000    0.5342    0.0000 H       1  UNL1        0.2100
@<TRIPOS>BOND
     1    23     1    1
     2     1    89    1
     3    25     2    1
     4     2    90    1
     5    32     3    1
     6    40     3    1
     7    33     4    1
     8     4    96    1
     9     5    40    1
    10     5    44    1
    11    41     6    1
    12     6   105    1
    13    43     7    1
    14     7   108    1
    15    45     8    1
    16     8   115    1
    17     9    47    1
    18    50     9    1
    19    10    50    1
    20    10    53    1
    21    51    11    1
    22    11   122    1
    23    52    12    1
    24    12   123    1
    25    54    13    1
    26    13   124    1
    27    14    15    1
    28    14    16    1
    29    14    20    1
    30    14    29    1
    31    15    18    1
    32    15    24    1
    33    15    30    1
    34    16    17    1
    35    16    21    1
    36    16    55    1
    37    17    19    1
    38    17    28    1
    39    17    31    1
    40    18    22    1
    41    18    23    1
    42    18    56    1
    43    19    25    1
    44    19    26    1
    45    19    57    1
    46    20    25    1
    47    20    58    1
    48    20    59    1
    49    21    23    1
    50    21    60    1
    51    21    61    1
    52    22    27    1
    53    22    32    1
    54    22    62    1
    55    23    63    1
    56    24    27    1
    57    24    64    1
    58    24    65    1
    59    25    66    1
    60    26    33    1
    61    26    35    1
    62    26    36    1
    63    27    67    1
    64    27    68    1
    65    28    34    1
    66    28    69    1
    67    28    70    1
    68    29    71    1
    69    29    72    1
    70    29    73    1
    71    30    74    1
    72    30    75    1
    73    30    76    1
    74    31    77    1
    75    31    78    1
    76    31    79    1
    77    32    37    1
    78    32    38    1
    79    33    34    1
    80    33    80    1
    81    34    81    1
    82    34    82    1
    83    35    86    1
    84    35    87    1
    85    35    88    1
    86    36    83    1
    87    36    84    1
    88    36    85    1
    89    37    39    1
    90    37    91    1
    91    37    92    1
    92    38    93    1
    93    38    94    1
    94    38    95    1
    95    39    42    1
    96    39    97    1
    97    39    98    1
    98    40    41    1
    99    40    99    1
   100    41    43    1
   101    41   100    1
   102    42    46    2
   103    42   101    1
   104    43    45    1
   105    43   102    1
   106    44    45    1
   107    44    47    1
   108    44   103    1
   109    45   104    1
   110    46    48    1
   111    46    49    1
   112    47   106    1
   113    47   107    1
   114    48   109    1
   115    48   110    1
   116    48   111    1
   117    49   112    1
   118    49   113    1
   119    49   114    1
   120    50    51    1
   121    50   116    1
   122    51    52    1
   123    51   117    1
   124    52    54    1
   125    52   118    1
   126    53    54    1
   127    53   119    1
   128    53   120    1
   129    54   121    1
