@<TRIPOS>MOLECULE
IMPHY017331
 38 39 0 0 0
SMALL
GASTEIGER

@<TRIPOS>ATOM
      1 O           7.2641   -0.2775    0.0000 O.3     1  UNL1       -0.3904
      2 C           2.8660   -0.7500    0.0000 C.3     1  UNL1       -0.0132
      3 C           2.0000   -0.2500    0.0000 C.3     1  UNL1       -0.0454
      4 C           2.8660    1.2500    0.0000 C.3     1  UNL1       -0.0184
      5 C           2.0000    0.7500    0.0000 C.3     1  UNL1       -0.0459
      6 C           3.7320   -0.2500    0.0000 C.ar    1  UNL1       -0.0403
      7 C           2.8660   -1.7500    0.0000 C.3     1  UNL1       -0.0399
      8 C           3.7320    0.7500    0.0000 C.ar    1  UNL1       -0.0411
      9 C           2.8660    2.2500    0.0000 C.3     1  UNL1       -0.0584
     10 C           4.6260   -0.7847    0.0000 C.ar    1  UNL1       -0.0527
     11 C           2.0000   -2.2500    0.0000 C.3     1  UNL1       -0.0621
     12 C           3.7320   -2.2500    0.0000 C.3     1  UNL1       -0.0621
     13 C           4.6260    1.2847    0.0000 C.ar    1  UNL1       -0.0577
     14 C           5.5321   -0.2708    0.0000 C.ar    1  UNL1       -0.0219
     15 C           5.5321    0.7708    0.0000 C.ar    1  UNL1       -0.0561
     16 C           6.3961   -0.7742    0.0000 C.3     1  UNL1        0.0692
     17 H           2.3291   -1.0600    0.0000 H       1  UNL1        0.0351
     18 H           1.3894   -0.1423    0.0000 H       1  UNL1        0.0271
     19 H           1.7880   -0.8326    0.0000 H       1  UNL1        0.0271
     20 H           3.4030    1.5600    0.0000 H       1  UNL1        0.0346
     21 H           1.7880    1.3326    0.0000 H       1  UNL1        0.0271
     22 H           1.3894    0.6423    0.0000 H       1  UNL1        0.0271
     23 H           2.8660   -2.3700    0.0000 H       1  UNL1        0.0301
     24 H           3.4860    2.2500    0.0000 H       1  UNL1        0.0236
     25 H           2.8660    2.8700    0.0000 H       1  UNL1        0.0236
     26 H           2.2460    2.2500    0.0000 H       1  UNL1        0.0236
     27 H           4.6188   -1.4046    0.0000 H       1  UNL1        0.0624
     28 H           1.6900   -1.7131    0.0000 H       1  UNL1        0.0233
     29 H           1.4631   -2.5600    0.0000 H       1  UNL1        0.0233
     30 H           2.3100   -2.7869    0.0000 H       1  UNL1        0.0233
     31 H           3.4220   -2.7869    0.0000 H       1  UNL1        0.0233
     32 H           4.2690   -2.5600    0.0000 H       1  UNL1        0.0233
     33 H           4.0420   -1.7131    0.0000 H       1  UNL1        0.0233
     34 H           4.6188    1.9046    0.0000 H       1  UNL1        0.0621
     35 H           6.0678    1.0829    0.0000 H       1  UNL1        0.0621
     36 H           5.9958   -1.2476    0.0000 H       1  UNL1        0.0607
     37 H           6.7928   -1.2506    0.0000 H       1  UNL1        0.0607
     38 H           7.7998   -0.5896    0.0000 H       1  UNL1        0.2098
@<TRIPOS>BOND
     1     1    16    1
     2     1    38    1
     3     2     3    1
     4     2     6    1
     5     2     7    1
     6     2    17    1
     7     3     5    1
     8     3    18    1
     9     3    19    1
    10     4     5    1
    11     4     8    1
    12     4     9    1
    13     4    20    1
    14     5    21    1
    15     5    22    1
    16     6     8   ar
    17     6    10   ar
    18     7    11    1
    19     7    12    1
    20     7    23    1
    21     8    13   ar
    22     9    24    1
    23     9    25    1
    24     9    26    1
    25    10    14   ar
    26    10    27    1
    27    11    28    1
    28    11    29    1
    29    11    30    1
    30    12    31    1
    31    12    32    1
    32    12    33    1
    33    13    15   ar
    34    13    34    1
    35    14    15   ar
    36    14    16    1
    37    15    35    1
    38    16    36    1
    39    16    37    1
