@<TRIPOS>MOLECULE
IMPHY006960
 33 35 0 0 0
SMALL
GASTEIGER

@<TRIPOS>ATOM
      1 O           2.5381    2.5121    0.0000 O.3     1  UNL1       -0.4914
      2 O           2.5381    0.4638    0.0000 O.3     1  UNL1       -0.5033
      3 O           6.0682   -3.5121    0.0000 O.2     1  UNL1       -0.2879
      4 N           6.9343    0.9879    0.0000 N.pl3   1  UNL1       -0.3196
      5 C           5.2022    0.9879    0.0000 C.ar    1  UNL1        0.0075
      6 C           6.0682    0.4879    0.0000 C.2     1  UNL1        0.0461
      7 C           5.2022    1.9879    0.0000 C.ar    1  UNL1       -0.0112
      8 C           6.0682   -0.5121    0.0000 C.2     1  UNL1       -0.0031
      9 C           4.3083    0.4533    0.0000 C.ar    1  UNL1       -0.0070
     10 C           4.3083    2.5226    0.0000 C.ar    1  UNL1       -0.0085
     11 C           6.0682    2.4879    0.0000 C.2     1  UNL1       -0.0400
     12 C           3.4022    2.0087    0.0000 C.ar    1  UNL1        0.1619
     13 C           3.4022    0.9671    0.0000 C.ar    1  UNL1        0.1591
     14 C           6.9343    1.9879    0.0000 C.2     1  UNL1       -0.0056
     15 C           5.2022   -1.0121    0.0000 C.2     1  UNL1       -0.0492
     16 C           6.9343   -1.0121    0.0000 C.2     1  UNL1       -0.0492
     17 C           5.2022   -2.0121    0.0000 C.2     1  UNL1       -0.0143
     18 C           6.9343   -2.0121    0.0000 C.2     1  UNL1       -0.0143
     19 C           6.0682   -2.5121    0.0000 C.2     1  UNL1        0.1790
     20 C           2.5420    3.5121    0.0000 C.3     1  UNL1        0.0790
     21 H           4.3154   -0.1667    0.0000 H       1  UNL1        0.0662
     22 H           7.4712    0.6779    0.0000 H       1  UNL1        0.1516
     23 H           4.3154    3.1426    0.0000 H       1  UNL1        0.0661
     24 H           6.0682    3.1079    0.0000 H       1  UNL1        0.0636
     25 H           7.4712    2.2979    0.0000 H       1  UNL1        0.0781
     26 H           4.6653   -0.7021    0.0000 H       1  UNL1        0.0625
     27 H           7.4712   -0.7021    0.0000 H       1  UNL1        0.0625
     28 H           4.6653   -2.3221    0.0000 H       1  UNL1        0.0656
     29 H           7.4712   -2.3221    0.0000 H       1  UNL1        0.0656
     30 H           2.0000    0.7717    0.0000 H       1  UNL1        0.2923
     31 H           3.1620    3.5097    0.0000 H       1  UNL1        0.0660
     32 H           2.5444    4.1321    0.0000 H       1  UNL1        0.0660
     33 H           1.9220    3.5145    0.0000 H       1  UNL1        0.0660
@<TRIPOS>BOND
     1     1    12    1
     2     1    20    1
     3     2    13    1
     4     2    30    1
     5     3    19    2
     6     4     6    1
     7     4    14    1
     8     4    22    1
     9     5     6    1
    10     5     7   ar
    11     5     9   ar
    12     6     8    2
    13     7    10   ar
    14     7    11    1
    15     8    15    1
    16     8    16    1
    17     9    13   ar
    18     9    21    1
    19    10    12   ar
    20    10    23    1
    21    11    14    2
    22    11    24    1
    23    12    13   ar
    24    14    25    1
    25    15    17    2
    26    15    26    1
    27    16    18    2
    28    16    27    1
    29    17    19    1
    30    17    28    1
    31    18    19    1
    32    18    29    1
    33    20    31    1
    34    20    32    1
    35    20    33    1
