@<TRIPOS>MOLECULE
IMPHY008647
 58 61 0 0 0
SMALL
GASTEIGER

@<TRIPOS>ATOM
      1 O           3.9061    0.0520    0.0000 O.3     1  UNL1       -0.4812
      2 O           7.4260    0.0520    0.0000 O.2     1  UNL1       -0.4505
      3 O           9.1962   -2.0068    0.0000 O.3     1  UNL1       -0.4883
      4 O           7.4144   -3.0173    0.0000 O.2     1  UNL1       -0.2831
      5 O          11.7961   -0.4485    0.0000 O.3     1  UNL1       -0.5033
      6 O          11.7884    1.5514    0.0000 O.3     1  UNL1       -0.5033
      7 C           3.0000   -0.4619    0.0000 C.3     1  UNL1        0.1235
      8 C           4.8000   -0.4827    0.0000 C.ar    1  UNL1        0.1358
      9 C           5.6660    0.0173    0.0000 C.ar    1  UNL1        0.0415
     10 C           4.8000   -1.4827    0.0000 C.ar    1  UNL1        0.0177
     11 C           6.5320   -0.4827    0.0000 C.ar    1  UNL1        0.1465
     12 C           3.0000   -1.5035    0.0000 C.2     1  UNL1       -0.0409
     13 C           6.5320   -1.4827    0.0000 C.ar    1  UNL1        0.0688
     14 C           3.9061   -2.0174    0.0000 C.2     1  UNL1       -0.0513
     15 C           5.6660   -1.9827    0.0000 C.ar    1  UNL1       -0.0366
     16 C           5.6660    1.0173    0.0000 C.3     1  UNL1       -0.0022
     17 C           2.0000   -0.4580    0.0000 C.3     1  UNL1       -0.0215
     18 C           2.5033    0.4061    0.0000 C.3     1  UNL1       -0.0215
     19 C           7.4260   -2.0174    0.0000 C.ar    1  UNL1        0.2346
     20 C           8.3321   -0.4619    0.0000 C.ar    1  UNL1        0.1809
     21 C           8.3321   -1.5035    0.0000 C.ar    1  UNL1        0.2105
     22 C           4.8000    1.5173    0.0000 C.2     1  UNL1       -0.0807
     23 C           9.1962    0.0414    0.0000 C.ar    1  UNL1        0.0247
     24 C           4.8000    2.5173    0.0000 C.2     1  UNL1       -0.0793
     25 C          10.0641   -0.4552    0.0000 C.ar    1  UNL1       -0.0057
     26 C           9.1923    1.0414    0.0000 C.ar    1  UNL1       -0.0473
     27 C           3.9340    3.0173    0.0000 C.3     1  UNL1       -0.0440
     28 C           5.6660    3.0173    0.0000 C.3     1  UNL1       -0.0440
     29 C          10.9282    0.0481    0.0000 C.ar    1  UNL1        0.1589
     30 C          10.0564    1.5448    0.0000 C.ar    1  UNL1       -0.0159
     31 C          10.9243    1.0481    0.0000 C.ar    1  UNL1        0.1583
     32 C           9.1923   -3.0068    0.0000 C.3     1  UNL1        0.0791
     33 H           2.4643   -1.8156    0.0000 H       1  UNL1        0.0611
     34 H           3.9132   -2.6373    0.0000 H       1  UNL1        0.0623
     35 H           5.6660   -2.6027    0.0000 H       1  UNL1        0.0633
     36 H           6.2766    0.9096    0.0000 H       1  UNL1        0.0358
     37 H           5.8781    1.5999    0.0000 H       1  UNL1        0.0358
     38 H           2.0024    0.1620    0.0000 H       1  UNL1        0.0271
     39 H           1.3800   -0.4556    0.0000 H       1  UNL1        0.0271
     40 H           1.9976   -1.0780    0.0000 H       1  UNL1        0.0271
     41 H           3.0415    0.7140    0.0000 H       1  UNL1        0.0271
     42 H           2.1954    0.9442    0.0000 H       1  UNL1        0.0271
     43 H           1.9652    0.0981    0.0000 H       1  UNL1        0.0271
     44 H           4.2631    1.2073    0.0000 H       1  UNL1        0.0575
     45 H          10.0665   -1.0752    0.0000 H       1  UNL1        0.0662
     46 H           8.6542    1.3494    0.0000 H       1  UNL1        0.0626
     47 H           4.2440    3.5542    0.0000 H       1  UNL1        0.0274
     48 H           5.9760    2.4804    0.0000 H       1  UNL1        0.0274
     49 H           6.2030    3.3273    0.0000 H       1  UNL1        0.0274
     50 H           5.3560    3.5542    0.0000 H       1  UNL1        0.0274
     51 H           3.3970    3.3273    0.0000 H       1  UNL1        0.0274
     52 H           3.6240    2.4804    0.0000 H       1  UNL1        0.0274
     53 H          10.0540    2.1648    0.0000 H       1  UNL1        0.0655
     54 H           8.5723   -3.0045    0.0000 H       1  UNL1        0.0660
     55 H           9.1899   -3.6268    0.0000 H       1  UNL1        0.0660
     56 H           9.8123   -3.0092    0.0000 H       1  UNL1        0.0660
     57 H          12.3319   -0.1365    0.0000 H       1  UNL1        0.2923
     58 H          11.7860    2.1714    0.0000 H       1  UNL1        0.2923
@<TRIPOS>BOND
     1     1     7    1
     2     1     8    1
     3     2    11   ar
     4     2    20   ar
     5     3    21    1
     6     3    32    1
     7     4    19    2
     8     5    29    1
     9     5    57    1
    10     6    31    1
    11     6    58    1
    12     7    12    1
    13     7    17    1
    14     7    18    1
    15     8     9   ar
    16     8    10   ar
    17     9    11   ar
    18     9    16    1
    19    10    14    1
    20    10    15   ar
    21    11    13   ar
    22    12    14    2
    23    12    33    1
    24    13    15   ar
    25    13    19   ar
    26    14    34    1
    27    15    35    1
    28    16    22    1
    29    16    36    1
    30    16    37    1
    31    17    38    1
    32    17    39    1
    33    17    40    1
    34    18    41    1
    35    18    42    1
    36    18    43    1
    37    19    21   ar
    38    20    21   ar
    39    20    23    1
    40    22    24    2
    41    22    44    1
    42    23    25   ar
    43    23    26   ar
    44    24    27    1
    45    24    28    1
    46    25    29   ar
    47    25    45    1
    48    26    30   ar
    49    26    46    1
    50    27    47    1
    51    27    51    1
    52    27    52    1
    53    28    48    1
    54    28    49    1
    55    28    50    1
    56    29    31   ar
    57    30    31   ar
    58    30    53    1
    59    32    54    1
    60    32    55    1
    61    32    56    1
