@<TRIPOS>MOLECULE
IMPHY009461
 31 32 0 0 0
SMALL
GASTEIGER

@<TRIPOS>ATOM
      1 O           4.5981   -1.8623    0.0000 O.3     1  UNL1       -0.5053
      2 O           8.1282   -0.8864    0.0000 O.2     1  UNL1       -0.4911
      3 O           6.3465   -1.8969    0.0000 O.2     1  UNL1       -0.2832
      4 O           6.3465    2.1723    0.0000 O.2     1  UNL1       -0.2871
      5 O           2.8660   -1.8623    0.0000 O.2     1  UNL1       -0.2922
      6 C           5.4641   -0.3623    0.0000 C.ar    1  UNL1        0.0782
      7 C           5.4641    0.6377    0.0000 C.ar    1  UNL1        0.0365
      8 C           3.7320   -0.3623    0.0000 C.ar    1  UNL1        0.0621
      9 C           3.7320    0.6377    0.0000 C.ar    1  UNL1       -0.0358
     10 C           4.5981   -0.8623    0.0000 C.ar    1  UNL1        0.1391
     11 C           4.5981    1.1377    0.0000 C.ar    1  UNL1       -0.0464
     12 C           6.3580   -0.8970    0.0000 C.2     1  UNL1        0.2316
     13 C           6.3580    1.1724    0.0000 C.2     1  UNL1        0.1905
     14 C           7.2641   -0.3831    0.0000 C.2     1  UNL1        0.1709
     15 C           2.8660    1.1377    0.0000 C.3     1  UNL1       -0.0389
     16 C           7.2641    0.6585    0.0000 C.2     1  UNL1        0.0312
     17 C           2.8660   -0.8623    0.0000 C.2     1  UNL1        0.1639
     18 C           2.0000   -0.3623    0.0000 C.3     1  UNL1       -0.0013
     19 C           8.9962   -0.3898    0.0000 C.3     1  UNL1        0.0790
     20 H           4.5981    1.7577    0.0000 H       1  UNL1        0.0628
     21 H           3.1760    1.6746    0.0000 H       1  UNL1        0.0278
     22 H           2.3291    1.4477    0.0000 H       1  UNL1        0.0278
     23 H           2.5560    0.6008    0.0000 H       1  UNL1        0.0278
     24 H           7.7998    0.9706    0.0000 H       1  UNL1        0.0694
     25 H           2.3100    0.1746    0.0000 H       1  UNL1        0.0309
     26 H           1.4631   -0.0523    0.0000 H       1  UNL1        0.0309
     27 H           1.6900   -0.8992    0.0000 H       1  UNL1        0.0309
     28 H           4.0611   -2.1723    0.0000 H       1  UNL1        0.2922
     29 H           9.3041   -0.9279    0.0000 H       1  UNL1        0.0660
     30 H           9.5343   -0.0819    0.0000 H       1  UNL1        0.0660
     31 H           8.6882    0.1483    0.0000 H       1  UNL1        0.0660
@<TRIPOS>BOND
     1     1    10    1
     2     1    28    1
     3     2    14    1
     4     2    19    1
     5     3    12    2
     6     4    13    2
     7     5    17    2
     8     6     7   ar
     9     6    10   ar
    10     6    12    1
    11     7    11   ar
    12     7    13    1
    13     8     9   ar
    14     8    10   ar
    15     8    17    1
    16     9    11   ar
    17     9    15    1
    18    11    20    1
    19    12    14    1
    20    13    16    1
    21    14    16    2
    22    15    21    1
    23    15    22    1
    24    15    23    1
    25    16    24    1
    26    17    18    1
    27    18    25    1
    28    18    26    1
    29    18    27    1
    30    19    29    1
    31    19    30    1
    32    19    31    1
