@<TRIPOS>MOLECULE
IMPHY013398
 53 56 0 0 0
SMALL
GASTEIGER

@<TRIPOS>ATOM
      1 O           9.6563    1.8026    0.0000 O.3     1  UNL1       -0.4838
      2 O           6.3580   -3.4722    0.0000 O.3     1  UNL1       -0.4915
      3 O           6.3233    1.5969    0.0000 O.3     1  UNL1       -0.5057
      4 O           5.4747    0.0870    0.0000 O.2     1  UNL1       -0.2913
      5 O           2.8660   -1.4375    0.0000 O.3     1  UNL1       -0.4914
      6 O           2.8660   -3.4375    0.0000 O.3     1  UNL1       -0.4913
      7 C           6.3580   -1.4029    0.0000 C.3     1  UNL1        0.0539
      8 C           7.2641   -1.9167    0.0000 C.3     1  UNL1       -0.0046
      9 C           5.4641   -1.9375    0.0000 C.ar    1  UNL1        0.0086
     10 C           8.2532    2.5911    0.0000 C.3     1  UNL1        0.0204
     11 C           8.0553    1.6170    0.0000 C.ar    1  UNL1        0.0401
     12 C           9.2407    2.7056    0.0000 C.3     1  UNL1        0.1249
     13 C           6.3465   -0.4029    0.0000 C.2     1  UNL1        0.1742
     14 C           7.2067    0.1070    0.0000 C.ar    1  UNL1        0.0599
     15 C           7.2641   -2.9583    0.0000 C.3     1  UNL1        0.0906
     16 C           8.9270    1.1270    0.0000 C.ar    1  UNL1        0.1282
     17 C           7.1951    1.1070    0.0000 C.ar    1  UNL1        0.1341
     18 C           5.4641   -2.9375    0.0000 C.ar    1  UNL1        0.1280
     19 C           4.5981   -1.4375    0.0000 C.ar    1  UNL1       -0.0090
     20 C           8.0784   -0.3829    0.0000 C.ar    1  UNL1       -0.0443
     21 C           8.9386    0.1271    0.0000 C.ar    1  UNL1       -0.0187
     22 C           9.7307    3.5774    0.0000 C.2     1  UNL1       -0.0395
     23 C           4.5981   -3.4375    0.0000 C.ar    1  UNL1        0.0257
     24 C           3.7320   -1.9375    0.0000 C.ar    1  UNL1        0.1620
     25 C           3.7320   -2.9375    0.0000 C.ar    1  UNL1        0.1650
     26 C          10.7306    3.5889    0.0000 C.3     1  UNL1       -0.0406
     27 C           9.2207    4.4375    0.0000 C.2     1  UNL1       -0.0962
     28 C           2.0000   -1.9375    0.0000 C.3     1  UNL1        0.0790
     29 C           2.8660   -4.4375    0.0000 C.3     1  UNL1        0.0790
     30 H           6.8920   -1.0877    0.0000 H       1  UNL1        0.0432
     31 H           7.8750   -2.0228    0.0000 H       1  UNL1        0.0308
     32 H           7.4732   -1.3330    0.0000 H       1  UNL1        0.0308
     33 H           8.2470    3.2111    0.0000 H       1  UNL1        0.0355
     34 H           7.6360    2.6500    0.0000 H       1  UNL1        0.0355
     35 H           9.8602    2.6806    0.0000 H       1  UNL1        0.0784
     36 H           7.4732   -3.5420    0.0000 H       1  UNL1        0.0697
     37 H           7.8750   -2.8523    0.0000 H       1  UNL1        0.0697
     38 H           4.5981   -0.8175    0.0000 H       1  UNL1        0.0659
     39 H           8.0856   -1.0029    0.0000 H       1  UNL1        0.0627
     40 H           9.4791   -0.1767    0.0000 H       1  UNL1        0.0654
     41 H           4.5981   -4.0575    0.0000 H       1  UNL1        0.0692
     42 H          10.7378    2.9690    0.0000 H       1  UNL1        0.0275
     43 H          11.3506    3.5961    0.0000 H       1  UNL1        0.0275
     44 H          10.7234    4.2089    0.0000 H       1  UNL1        0.0275
     45 H           6.3162    2.2169    0.0000 H       1  UNL1        0.2922
     46 H           9.5244    4.9780    0.0000 H       1  UNL1        0.0535
     47 H           8.6007    4.4304    0.0000 H       1  UNL1        0.0535
     48 H           1.6900   -1.4006    0.0000 H       1  UNL1        0.0660
     49 H           1.4631   -2.2475    0.0000 H       1  UNL1        0.0660
     50 H           2.3100   -2.4745    0.0000 H       1  UNL1        0.0660
     51 H           2.2460   -4.4375    0.0000 H       1  UNL1        0.0660
     52 H           2.8660   -5.0575    0.0000 H       1  UNL1        0.0660
     53 H           3.4860   -4.4375    0.0000 H       1  UNL1        0.0660
@<TRIPOS>BOND
     1     1    12    1
     2     1    16    1
     3     2    15    1
     4     2    18    1
     5     3    17    1
     6     3    45    1
     7     4    13    2
     8     5    24    1
     9     5    28    1
    10     6    25    1
    11     6    29    1
    12     7     8    1
    13     7     9    1
    14     7    13    1
    15     7    30    1
    16     8    15    1
    17     8    31    1
    18     8    32    1
    19     9    18   ar
    20     9    19   ar
    21    10    11    1
    22    10    12    1
    23    10    33    1
    24    10    34    1
    25    11    16   ar
    26    11    17   ar
    27    12    22    1
    28    12    35    1
    29    13    14    1
    30    14    17   ar
    31    14    20   ar
    32    15    36    1
    33    15    37    1
    34    16    21   ar
    35    18    23   ar
    36    19    24   ar
    37    19    38    1
    38    20    21   ar
    39    20    39    1
    40    21    40    1
    41    22    26    1
    42    22    27    2
    43    23    25   ar
    44    23    41    1
    45    24    25   ar
    46    26    42    1
    47    26    43    1
    48    26    44    1
    49    27    46    1
    50    27    47    1
    51    28    48    1
    52    28    49    1
    53    28    50    1
    54    29    51    1
    55    29    52    1
    56    29    53    1
