@<TRIPOS>MOLECULE
IMPHY015050
 73 77 0 0 0
SMALL
GASTEIGER

@<TRIPOS>ATOM
      1 O           5.1459   -2.6330    0.0000 O.3     1  UNL1       -0.3313
      2 O           5.1396    4.4396    0.0000 O.3     1  UNL1       -0.3339
      3 O           6.8779   -2.6330    0.0000 O.3     1  UNL1       -0.4532
      4 O           5.1459   -5.6330    0.0000 O.3     1  UNL1       -0.3864
      5 O           3.4138   -4.6330    0.0000 O.3     1  UNL1       -0.3865
      6 O           5.9998    2.9363    0.0000 O.3     1  UNL1       -0.4606
      7 O           6.8779   -4.6330    0.0000 O.3     1  UNL1       -0.3829
      8 O           2.5357    2.9496    0.0000 O.3     1  UNL1       -0.3864
      9 O           2.5434    4.9496    0.0000 O.3     1  UNL1       -0.3866
     10 O           4.2639    1.9430    0.0000 O.3     1  UNL1       -0.3829
     11 O           2.5478   -3.1330    0.0000 O.3     1  UNL1       -0.3924
     12 O           7.7440   -0.1330    0.0000 O.2     1  UNL1       -0.4507
     13 O           5.1459   -1.6329    0.0000 O.2     1  UNL1       -0.2830
     14 O           4.2417   -0.1361    0.0000 O.3     1  UNL1       -0.5058
     15 O          11.2081   -1.1329    0.0000 O.3     1  UNL1       -0.5033
     16 O          11.2081   -3.1330    0.0000 O.3     1  UNL1       -0.5033
     17 C           5.1459   -4.6330    0.0000 C.3     1  UNL1        0.1152
     18 C           4.2799   -4.1330    0.0000 C.3     1  UNL1        0.1120
     19 C           6.0119   -4.1330    0.0000 C.3     1  UNL1        0.1454
     20 C           4.2799   -3.1330    0.0000 C.3     1  UNL1        0.1140
     21 C           3.4037    3.4463    0.0000 C.3     1  UNL1        0.1151
     22 C           3.4075    4.4463    0.0000 C.3     1  UNL1        0.1096
     23 C           6.0119   -3.1330    0.0000 C.3     1  UNL1        0.2311
     24 C           4.2678    2.9430    0.0000 C.3     1  UNL1        0.1454
     25 C           4.2755    4.9430    0.0000 C.3     1  UNL1        0.0883
     26 C           5.1357    3.4396    0.0000 C.3     1  UNL1        0.2307
     27 C           3.4138   -2.6330    0.0000 C.3     1  UNL1        0.0731
     28 C           4.2793    5.9430    0.0000 C.3     1  UNL1       -0.0360
     29 C           6.8779   -1.6329    0.0000 C.ar    1  UNL1        0.2138
     30 C           5.9960    1.9363    0.0000 C.ar    1  UNL1        0.1310
     31 C           6.0119   -0.1330    0.0000 C.ar    1  UNL1        0.1092
     32 C           6.0119   -1.1329    0.0000 C.ar    1  UNL1        0.2382
     33 C           7.7440   -1.1329    0.0000 C.ar    1  UNL1        0.1810
     34 C           6.8779    0.3670    0.0000 C.ar    1  UNL1        0.1465
     35 C           6.8940    1.4086    0.0000 C.ar    1  UNL1        0.0235
     36 C           5.0939    1.4155    0.0000 C.ar    1  UNL1        0.0226
     37 C           5.1019    0.3739    0.0000 C.ar    1  UNL1        0.1348
     38 C           8.6100   -1.6329    0.0000 C.ar    1  UNL1        0.0247
     39 C           9.4760   -1.1329    0.0000 C.ar    1  UNL1       -0.0057
     40 C           8.6100   -2.6330    0.0000 C.ar    1  UNL1       -0.0473
     41 C          10.3420   -1.6329    0.0000 C.ar    1  UNL1        0.1589
     42 C           9.4760   -3.1330    0.0000 C.ar    1  UNL1       -0.0159
     43 C          10.3420   -2.6330    0.0000 C.ar    1  UNL1        0.1583
     44 H           4.6090   -4.9430    0.0000 H       1  UNL1        0.0648
     45 H           3.7429   -3.8230    0.0000 H       1  UNL1        0.0647
     46 H           6.0119   -4.7530    0.0000 H       1  UNL1        0.0683
     47 H           4.2799   -2.5130    0.0000 H       1  UNL1        0.0647
     48 H           3.9418    3.7542    0.0000 H       1  UNL1        0.0648
     49 H           2.8694    4.1384    0.0000 H       1  UNL1        0.0646
     50 H           6.5488   -3.4430    0.0000 H       1  UNL1        0.1084
     51 H           3.7296    2.6350    0.0000 H       1  UNL1        0.0683
     52 H           4.8136    5.2509    0.0000 H       1  UNL1        0.0621
     53 H           5.1333    2.8196    0.0000 H       1  UNL1        0.1084
     54 H           3.8124   -2.1580    0.0000 H       1  UNL1        0.0584
     55 H           3.0153   -2.1580    0.0000 H       1  UNL1        0.0584
     56 H           4.8993    5.9406    0.0000 H       1  UNL1        0.0255
     57 H           4.2817    6.5630    0.0000 H       1  UNL1        0.0255
     58 H           3.6593    5.9453    0.0000 H       1  UNL1        0.0255
     59 H           4.6090   -5.9430    0.0000 H       1  UNL1        0.2100
     60 H           3.4138   -5.2530    0.0000 H       1  UNL1        0.2100
     61 H           6.8779   -5.2530    0.0000 H       1  UNL1        0.2102
     62 H           2.0000    3.2617    0.0000 H       1  UNL1        0.2100
     63 H           2.5458    5.5696    0.0000 H       1  UNL1        0.2100
     64 H           3.7258    1.6351    0.0000 H       1  UNL1        0.2102
     65 H           2.0109   -2.8230    0.0000 H       1  UNL1        0.2095
     66 H           7.4345    1.7123    0.0000 H       1  UNL1        0.0691
     67 H           4.5558    1.7234    0.0000 H       1  UNL1        0.0691
     68 H           9.4760   -0.5130    0.0000 H       1  UNL1        0.0662
     69 H           8.0730   -2.9430    0.0000 H       1  UNL1        0.0626
     70 H           3.7012    0.1677    0.0000 H       1  UNL1        0.2922
     71 H           9.4760   -3.7530    0.0000 H       1  UNL1        0.0655
     72 H          11.2081   -0.5130    0.0000 H       1  UNL1        0.2923
     73 H          11.2081   -3.7530    0.0000 H       1  UNL1        0.2923
@<TRIPOS>BOND
     1     1    20    1
     2     1    23    1
     3     2    25    1
     4     2    26    1
     5     3    23    1
     6     3    29    1
     7     4    17    1
     8     4    59    1
     9     5    18    1
    10     5    60    1
    11     6    26    1
    12     6    30    1
    13     7    19    1
    14     7    61    1
    15     8    21    1
    16     8    62    1
    17     9    22    1
    18     9    63    1
    19    10    24    1
    20    10    64    1
    21    11    27    1
    22    11    65    1
    23    12    33   ar
    24    12    34   ar
    25    13    32    2
    26    14    37    1
    27    14    70    1
    28    15    41    1
    29    15    72    1
    30    16    43    1
    31    16    73    1
    32    17    18    1
    33    17    19    1
    34    17    44    1
    35    18    20    1
    36    18    45    1
    37    19    23    1
    38    19    46    1
    39    20    27    1
    40    20    47    1
    41    21    22    1
    42    21    24    1
    43    21    48    1
    44    22    25    1
    45    22    49    1
    46    23    50    1
    47    24    26    1
    48    24    51    1
    49    25    28    1
    50    25    52    1
    51    26    53    1
    52    27    54    1
    53    27    55    1
    54    28    56    1
    55    28    57    1
    56    28    58    1
    57    29    32   ar
    58    29    33   ar
    59    30    35   ar
    60    30    36   ar
    61    31    32   ar
    62    31    34   ar
    63    31    37   ar
    64    33    38    1
    65    34    35   ar
    66    35    66    1
    67    36    37   ar
    68    36    67    1
    69    38    39   ar
    70    38    40   ar
    71    39    41   ar
    72    39    68    1
    73    40    42   ar
    74    40    69    1
    75    41    43   ar
    76    42    43   ar
    77    42    71    1
