@<TRIPOS>MOLECULE
IMPHY017428
 34 33 0 0 0
SMALL
GASTEIGER

@<TRIPOS>ATOM
      1 O           3.7320   -2.2500    0.0000 O.2     1  UNL1       -0.2977
      2 C           3.7320   -0.2500    0.0000 C.3     1  UNL1       -0.0208
      3 C           3.7320    0.7500    0.0000 C.2     1  UNL1       -0.0453
      4 C           2.8660   -0.7500    0.0000 C.3     1  UNL1        0.0095
      5 C           2.8660    1.2500    0.0000 C.2     1  UNL1       -0.0723
      6 C           4.5981    1.2500    0.0000 C.2     1  UNL1       -0.0473
      7 C           2.8660   -1.7500    0.0000 C.2     1  UNL1        0.1306
      8 C           2.0000    0.7500    0.0000 C.3     1  UNL1       -0.0435
      9 C           2.8660    2.2500    0.0000 C.3     1  UNL1       -0.0435
     10 C           4.5981    2.2500    0.0000 C.3     1  UNL1       -0.0395
     11 C           5.4641    0.7500    0.0000 C.2     1  UNL1       -0.0591
     12 C           2.0000   -2.2500    0.0000 C.3     1  UNL1       -0.0061
     13 C           6.3301    1.2500    0.0000 C.2     1  UNL1       -0.0686
     14 C           7.1962    0.7500    0.0000 C.2     1  UNL1       -0.0987
     15 H           3.9441   -0.8326    0.0000 H       1  UNL1        0.0317
     16 H           4.3426   -0.1423    0.0000 H       1  UNL1        0.0317
     17 H           2.6540   -0.1674    0.0000 H       1  UNL1        0.0345
     18 H           2.2554   -0.8577    0.0000 H       1  UNL1        0.0345
     19 H           1.6900    1.2869    0.0000 H       1  UNL1        0.0274
     20 H           1.4631    0.4400    0.0000 H       1  UNL1        0.0274
     21 H           2.3100    0.2131    0.0000 H       1  UNL1        0.0274
     22 H           3.4860    2.2500    0.0000 H       1  UNL1        0.0274
     23 H           2.8660    2.8700    0.0000 H       1  UNL1        0.0274
     24 H           2.2460    2.2500    0.0000 H       1  UNL1        0.0274
     25 H           5.2181    2.2500    0.0000 H       1  UNL1        0.0278
     26 H           4.5981    2.8700    0.0000 H       1  UNL1        0.0278
     27 H           3.9781    2.2500    0.0000 H       1  UNL1        0.0278
     28 H           5.4641    0.1300    0.0000 H       1  UNL1        0.0620
     29 H           1.6900   -1.7131    0.0000 H       1  UNL1        0.0306
     30 H           1.4631   -2.5600    0.0000 H       1  UNL1        0.0306
     31 H           2.3100   -2.7869    0.0000 H       1  UNL1        0.0306
     32 H           6.3301    1.8700    0.0000 H       1  UNL1        0.0612
     33 H           7.1962    0.1300    0.0000 H       1  UNL1        0.0535
     34 H           7.7331    1.0600    0.0000 H       1  UNL1        0.0535
@<TRIPOS>BOND
     1     1     7    2
     2     2     3    1
     3     2     4    1
     4     2    15    1
     5     2    16    1
     6     3     5    2
     7     3     6    1
     8     4     7    1
     9     4    17    1
    10     4    18    1
    11     5     8    1
    12     5     9    1
    13     6    10    1
    14     6    11    2
    15     7    12    1
    16     8    19    1
    17     8    20    1
    18     8    21    1
    19     9    22    1
    20     9    23    1
    21     9    24    1
    22    10    25    1
    23    10    26    1
    24    10    27    1
    25    11    13    1
    26    11    28    1
    27    12    29    1
    28    12    30    1
    29    12    31    1
    30    13    14    2
    31    13    32    1
    32    14    33    1
    33    14    34    1
