@<TRIPOS>MOLECULE
IMPHY001049
 42 44 0 0 0
SMALL
GASTEIGER

@<TRIPOS>ATOM
      1 O           5.1482    2.1688    0.0000 O.3     1  UNL1       -0.4573
      2 O           5.7812   -1.0396    0.0000 O.3     1  UNL1       -0.4598
      3 O           4.6840   -2.5270    0.0000 O.2     1  UNL1       -0.2920
      4 O           6.8881    2.5270    0.0000 O.2     1  UNL1       -0.2453
      5 O           7.4789   -0.6964    0.0000 O.2     1  UNL1       -0.2512
      6 C           4.0984   -0.8500    0.0000 C.3     1  UNL1        0.0741
      7 C           3.1974   -0.4161    0.0000 C.3     1  UNL1       -0.0040
      8 C           4.9994   -0.4161    0.0000 C.3     1  UNL1        0.1262
      9 C           5.2219    0.5588    0.0000 C.3     1  UNL1        0.0653
     10 C           2.9749    0.5588    0.0000 C.3     1  UNL1       -0.0332
     11 C           4.5984    1.3406    0.0000 C.3     1  UNL1        0.1140
     12 C           3.5984    1.3406    0.0000 C.3     1  UNL1       -0.0118
     13 C           3.9624   -1.8347    0.0000 C.2     1  UNL1        0.1657
     14 C           4.9994   -1.2839    0.0000 C.3     1  UNL1       -0.0485
     15 C           2.5124   -1.1364    0.0000 C.2     1  UNL1       -0.0763
     16 C           6.1517    0.9105    0.0000 C.2     1  UNL1        0.0396
     17 C           2.0000    0.7813    0.0000 C.3     1  UNL1       -0.0617
     18 C           2.9842   -2.0114    0.0000 C.2     1  UNL1       -0.0221
     19 C           6.1062    1.9036    0.0000 C.2     1  UNL1        0.3354
     20 C           7.1449    1.0267    0.0000 C.2     1  UNL1       -0.0882
     21 C           6.7292   -1.3581    0.0000 C.2     1  UNL1        0.3043
     22 C           6.9273   -2.3383    0.0000 C.3     1  UNL1        0.0332
     23 H           2.3778   -0.1911    0.0000 H       1  UNL1        0.0356
     24 H           5.5846   -0.2113    0.0000 H       1  UNL1        0.0751
     25 H           5.8627    0.0004    0.0000 H       1  UNL1        0.0423
     26 H           2.7702    1.1440    0.0000 H       1  UNL1        0.0305
     27 H           4.1966    2.0897    0.0000 H       1  UNL1        0.0741
     28 H           3.7364    1.9451    0.0000 H       1  UNL1        0.0304
     29 H           3.0398    1.6096    0.0000 H       1  UNL1        0.0304
     30 H           4.7304   -1.8425    0.0000 H       1  UNL1        0.0241
     31 H           5.5580   -1.5529    0.0000 H       1  UNL1        0.0241
     32 H           5.2684   -0.7253    0.0000 H       1  UNL1        0.0241
     33 H           1.8978   -1.0542    0.0000 H       1  UNL1        0.0576
     34 H           2.1380    1.3858    0.0000 H       1  UNL1        0.0233
     35 H           1.3955    0.9193    0.0000 H       1  UNL1        0.0233
     36 H           1.8620    0.1769    0.0000 H       1  UNL1        0.0233
     37 H           2.7152   -2.5700    0.0000 H       1  UNL1        0.0649
     38 H           7.5152    0.5294    0.0000 H       1  UNL1        0.0540
     39 H           7.3904    1.5960    0.0000 H       1  UNL1        0.0540
     40 H           6.3196   -2.4611    0.0000 H       1  UNL1        0.0342
     41 H           7.0501   -2.9460    0.0000 H       1  UNL1        0.0342
     42 H           7.5350   -2.2154    0.0000 H       1  UNL1        0.0342
@<TRIPOS>BOND
     1     1    11    1
     2     1    19    1
     3     8     2    1
     4     2    21    1
     5     3    13    2
     6     4    19    2
     7     5    21    2
     8     6     7    1
     9     6     8    1
    10     6    13    1
    11     6    14    1
    12     7    10    1
    13     7    15    1
    14     7    23    1
    15     8     9    1
    16     8    24    1
    17     9    11    1
    18     9    16    1
    19     9    25    1
    20    10    12    1
    21    10    17    1
    22    10    26    1
    23    11    12    1
    24    11    27    1
    25    12    28    1
    26    12    29    1
    27    13    18    1
    28    14    30    1
    29    14    31    1
    30    14    32    1
    31    15    18    2
    32    15    33    1
    33    16    19    1
    34    16    20    2
    35    17    34    1
    36    17    35    1
    37    17    36    1
    38    18    37    1
    39    20    38    1
    40    20    39    1
    41    21    22    1
    42    22    40    1
    43    22    41    1
    44    22    42    1
