@<TRIPOS>MOLECULE
IMPHY006417
 26 25 0 0 0
SMALL
GASTEIGER

@<TRIPOS>ATOM
      1 C           7.1962   -0.0600    0.0000 C.2     1  UNL1       -0.0757
      2 C           3.7320   -0.0600    0.0000 C.2     1  UNL1       -0.0546
      3 C           6.3301    0.4400    0.0000 C.2     1  UNL1       -0.0630
      4 C           4.5981    0.4400    0.0000 C.2     1  UNL1       -0.0591
      5 C           5.4641   -0.0600    0.0000 C.2     1  UNL1       -0.0616
      6 C           8.0622    0.4400    0.0000 C.3     1  UNL1       -0.0438
      7 C           7.1962   -1.0600    0.0000 C.3     1  UNL1       -0.0438
      8 C           3.7320   -1.0600    0.0000 C.3     1  UNL1       -0.0400
      9 C           2.8660    0.4400    0.0000 C.2     1  UNL1       -0.0842
     10 C           2.0000   -0.0600    0.0000 C.3     1  UNL1       -0.0463
     11 H           6.3301    1.0600    0.0000 H       1  UNL1        0.0617
     12 H           4.5981    1.0600    0.0000 H       1  UNL1        0.0620
     13 H           5.4641   -0.6800    0.0000 H       1  UNL1        0.0618
     14 H           8.3722   -0.0969    0.0000 H       1  UNL1        0.0274
     15 H           8.5991    0.7500    0.0000 H       1  UNL1        0.0274
     16 H           7.7522    0.9769    0.0000 H       1  UNL1        0.0274
     17 H           6.5762   -1.0600    0.0000 H       1  UNL1        0.0274
     18 H           7.1962   -1.6800    0.0000 H       1  UNL1        0.0274
     19 H           7.8162   -1.0600    0.0000 H       1  UNL1        0.0274
     20 H           3.1120   -1.0600    0.0000 H       1  UNL1        0.0277
     21 H           3.7320   -1.6800    0.0000 H       1  UNL1        0.0277
     22 H           4.3520   -1.0600    0.0000 H       1  UNL1        0.0277
     23 H           2.8660    1.0600    0.0000 H       1  UNL1        0.0572
     24 H           1.6900    0.4769    0.0000 H       1  UNL1        0.0272
     25 H           1.4631   -0.3700    0.0000 H       1  UNL1        0.0272
     26 H           2.3100   -0.5969    0.0000 H       1  UNL1        0.0272
@<TRIPOS>BOND
     1     1     3    2
     2     1     6    1
     3     1     7    1
     4     2     4    1
     5     2     8    1
     6     2     9    2
     7     3     5    1
     8     3    11    1
     9     4     5    2
    10     4    12    1
    11     5    13    1
    12     6    14    1
    13     6    15    1
    14     6    16    1
    15     7    17    1
    16     7    18    1
    17     7    19    1
    18     8    20    1
    19     8    21    1
    20     8    22    1
    21     9    10    1
    22     9    23    1
    23    10    24    1
    24    10    25    1
    25    10    26    1
