@<TRIPOS>MOLECULE
IMPHY003014
 8 6 0 0 0
SMALL
GASTEIGER

@<TRIPOS>ATOM
      1 K           2.0000   -0.2500    0.0000 K       1  UNL1        0.0000
      2 O           2.8660    0.2500    0.0000 O.co2   2  UNL2       -0.5000
      3 O           5.4641   -0.2500    0.0000 O.3     2  UNL2        0.0000
      4 O           3.7320   -1.2500    0.0000 O.co2   2  UNL2       -0.5000
      5 O           4.5981    1.2500    0.0000 O.2     2  UNL2        0.0000
      6 C           3.7320   -0.2500    0.0000 C.2     2  UNL2        0.0000
      7 C           4.5981    0.2500    0.0000 C.2     2  UNL2        0.0000
      8 H           6.0010    0.0600    0.0000 H       2  UNL2        0.0000
@<TRIPOS>UNITY_ATOM_ATTR
1 1
charge 1
2 1
charge -1
@<TRIPOS>BOND
     1     2     6   ar
     2     3     7    1
     3     3     8    1
     4     4     6   ar
     5     5     7    2
     6     6     7    1
