@<TRIPOS>MOLECULE
IMPHY006913
 100 104 0 0 0
SMALL
GASTEIGER

@<TRIPOS>ATOM
      1 O          10.3312   -2.7500    0.0000 O.3     1  UNL1       -0.3389
      2 O          10.3312    0.2500    0.0000 O.3     1  UNL1       -0.3394
      3 O          12.0632   -2.7500    0.0000 O.3     1  UNL1       -0.3431
      4 O           8.5991   -1.7500    0.0000 O.3     1  UNL1       -0.4528
      5 O           8.5991    1.2500    0.0000 O.3     1  UNL1       -0.3460
      6 O          12.0632    0.2500    0.0000 O.3     1  UNL1       -0.3484
      7 O          12.0632   -1.7500    0.0000 O.3     1  UNL1       -0.3841
      8 O           7.7331    2.7500    0.0000 O.3     1  UNL1       -0.3431
      9 O          10.3312   -4.7500    0.0000 O.3     1  UNL1       -0.3841
     10 O          12.0632   -5.7500    0.0000 O.3     1  UNL1       -0.3864
     11 O          13.7953   -4.7500    0.0000 O.3     1  UNL1       -0.3866
     12 O           6.8671    0.2500    0.0000 O.3     1  UNL1       -0.3841
     13 O           5.1350    1.2500    0.0000 O.3     1  UNL1       -0.3864
     14 O           5.1350    3.2500    0.0000 O.3     1  UNL1       -0.3866
     15 O           7.7331   -0.2500    0.0000 O.2     1  UNL1       -0.2456
     16 O          14.6613    4.7500    0.0000 O.3     1  UNL1       -0.5033
     17 O          12.9292    5.7500    0.0000 O.3     1  UNL1       -0.5033
     18 O           2.5369   -1.2500    0.0000 O.3     1  UNL1       -0.5033
     19 O           2.5369   -3.2500    0.0000 O.3     1  UNL1       -0.5033
     20 C          10.3312   -1.7500    0.0000 C.3     1  UNL1        0.1316
     21 C           9.4651   -1.2500    0.0000 C.3     1  UNL1        0.1602
     22 C           9.4651   -0.2500    0.0000 C.3     1  UNL1        0.1244
     23 C          11.1972   -1.2500    0.0000 C.3     1  UNL1        0.1355
     24 C          11.1972   -0.2500    0.0000 C.3     1  UNL1        0.1880
     25 C          11.1972   -3.2500    0.0000 C.3     1  UNL1        0.1884
     26 C          11.1972   -4.2500    0.0000 C.3     1  UNL1        0.1341
     27 C           8.5991    0.2500    0.0000 C.3     1  UNL1        0.0806
     28 C          12.0632   -4.7500    0.0000 C.3     1  UNL1        0.1140
     29 C          12.9292   -4.2500    0.0000 C.3     1  UNL1        0.1095
     30 C          12.9292   -3.2500    0.0000 C.3     1  UNL1        0.0873
     31 C           7.7331    1.7500    0.0000 C.3     1  UNL1        0.1879
     32 C           6.8671    1.2500    0.0000 C.3     1  UNL1        0.1341
     33 C           6.0010    1.7500    0.0000 C.3     1  UNL1        0.1140
     34 C           6.0010    2.7500    0.0000 C.3     1  UNL1        0.1095
     35 C           6.8671    3.2500    0.0000 C.3     1  UNL1        0.0873
     36 C          13.7953   -2.7500    0.0000 C.3     1  UNL1       -0.0361
     37 C          12.0632    1.2500    0.0000 C.3     1  UNL1        0.0547
     38 C           6.8671    4.2500    0.0000 C.3     1  UNL1       -0.0361
     39 C           7.7331   -1.2500    0.0000 C.2     1  UNL1        0.3324
     40 C          12.9292    1.7500    0.0000 C.3     1  UNL1       -0.0039
     41 C           6.8671   -1.7500    0.0000 C.2     1  UNL1        0.0231
     42 C          12.9292    2.7500    0.0000 C.ar    1  UNL1       -0.0415
     43 C           6.0010   -1.2500    0.0000 C.2     1  UNL1       -0.0477
     44 C          13.7953    3.2500    0.0000 C.ar    1  UNL1       -0.0133
     45 C          12.0632    3.2500    0.0000 C.ar    1  UNL1       -0.0548
     46 C           5.1350   -1.7500    0.0000 C.ar    1  UNL1       -0.0211
     47 C          13.7953    4.2500    0.0000 C.ar    1  UNL1        0.1585
     48 C          12.0632    4.2500    0.0000 C.ar    1  UNL1       -0.0163
     49 C          12.9292    4.7500    0.0000 C.ar    1  UNL1        0.1582
     50 C           4.2690   -1.2500    0.0000 C.ar    1  UNL1       -0.0094
     51 C           5.1350   -2.7500    0.0000 C.ar    1  UNL1       -0.0509
     52 C           3.4030   -1.7500    0.0000 C.ar    1  UNL1        0.1588
     53 C           4.2690   -3.2500    0.0000 C.ar    1  UNL1       -0.0160
     54 C           3.4030   -2.7500    0.0000 C.ar    1  UNL1        0.1582
     55 H           9.7942   -2.0600    0.0000 H       1  UNL1        0.0663
     56 H           8.9282   -0.9400    0.0000 H       1  UNL1        0.0788
     57 H           9.4651    0.3700    0.0000 H       1  UNL1        0.0658
     58 H          11.7341   -0.9400    0.0000 H       1  UNL1        0.0671
     59 H          11.1972    0.3700    0.0000 H       1  UNL1        0.0937
     60 H          11.1972   -2.6300    0.0000 H       1  UNL1        0.0938
     61 H          11.1972   -4.8700    0.0000 H       1  UNL1        0.0671
     62 H           7.9885    0.3577    0.0000 H       1  UNL1        0.0588
     63 H           8.3871   -0.3326    0.0000 H       1  UNL1        0.0588
     64 H          12.6002   -5.0600    0.0000 H       1  UNL1        0.0648
     65 H          13.4662   -3.9400    0.0000 H       1  UNL1        0.0646
     66 H          12.9292   -2.6300    0.0000 H       1  UNL1        0.0621
     67 H           7.7331    1.1300    0.0000 H       1  UNL1        0.0937
     68 H           6.3301    0.9400    0.0000 H       1  UNL1        0.0671
     69 H           5.4641    2.0600    0.0000 H       1  UNL1        0.0648
     70 H           6.0010    3.3700    0.0000 H       1  UNL1        0.0646
     71 H           7.4040    3.5600    0.0000 H       1  UNL1        0.0621
     72 H          12.6002   -1.4400    0.0000 H       1  UNL1        0.2101
     73 H          14.1053   -3.2869    0.0000 H       1  UNL1        0.0255
     74 H          14.3322   -2.4400    0.0000 H       1  UNL1        0.0255
     75 H          13.4853   -2.2131    0.0000 H       1  UNL1        0.0255
     76 H          10.3312   -5.3700    0.0000 H       1  UNL1        0.2101
     77 H          11.8512    1.8326    0.0000 H       1  UNL1        0.0564
     78 H          11.4526    1.1423    0.0000 H       1  UNL1        0.0564
     79 H          12.6002   -6.0600    0.0000 H       1  UNL1        0.2100
     80 H          14.3322   -4.4400    0.0000 H       1  UNL1        0.2100
     81 H           7.4871    4.2500    0.0000 H       1  UNL1        0.0255
     82 H           6.8671    4.8700    0.0000 H       1  UNL1        0.0255
     83 H           6.2471    4.2500    0.0000 H       1  UNL1        0.0255
     84 H           6.3301   -0.0600    0.0000 H       1  UNL1        0.2101
     85 H           4.5981    1.5600    0.0000 H       1  UNL1        0.2100
     86 H           5.1350    3.8700    0.0000 H       1  UNL1        0.2100
     87 H          13.1413    1.1674    0.0000 H       1  UNL1        0.0335
     88 H          13.5398    1.8577    0.0000 H       1  UNL1        0.0335
     89 H           6.8671   -2.3700    0.0000 H       1  UNL1        0.0689
     90 H           6.0010   -0.6300    0.0000 H       1  UNL1        0.0626
     91 H          14.3322    2.9400    0.0000 H       1  UNL1        0.0658
     92 H          11.5263    2.9400    0.0000 H       1  UNL1        0.0621
     93 H          11.5263    4.5600    0.0000 H       1  UNL1        0.0655
     94 H           4.2690   -0.6300    0.0000 H       1  UNL1        0.0661
     95 H           5.6720   -3.0600    0.0000 H       1  UNL1        0.0625
     96 H          15.1982    4.4400    0.0000 H       1  UNL1        0.2923
     97 H           4.2690   -3.8700    0.0000 H       1  UNL1        0.0655
     98 H          12.3923    6.0600    0.0000 H       1  UNL1        0.2923
     99 H           2.0000   -1.5600    0.0000 H       1  UNL1        0.2923
    100 H           2.5369   -3.8700    0.0000 H       1  UNL1        0.2923
@<TRIPOS>BOND
     1    20     1    1
     2    25     1    1
     3     2    22    1
     4     2    24    1
     5     3    25    1
     6     3    30    1
     7    21     4    1
     8     4    39    1
     9     5    27    1
    10    31     5    1
    11    24     6    1
    12     6    37    1
    13    23     7    1
    14     7    72    1
    15     8    31    1
    16     8    35    1
    17    26     9    1
    18     9    76    1
    19    28    10    1
    20    10    79    1
    21    29    11    1
    22    11    80    1
    23    32    12    1
    24    12    84    1
    25    33    13    1
    26    13    85    1
    27    34    14    1
    28    14    86    1
    29    15    39    2
    30    16    47    1
    31    16    96    1
    32    17    49    1
    33    17    98    1
    34    18    52    1
    35    18    99    1
    36    19    54    1
    37    19   100    1
    38    20    21    1
    39    20    23    1
    40    20    55    1
    41    21    22    1
    42    21    56    1
    43    22    27    1
    44    22    57    1
    45    23    24    1
    46    23    58    1
    47    24    59    1
    48    25    26    1
    49    25    60    1
    50    26    28    1
    51    26    61    1
    52    27    62    1
    53    27    63    1
    54    28    29    1
    55    28    64    1
    56    29    30    1
    57    29    65    1
    58    30    36    1
    59    30    66    1
    60    31    32    1
    61    31    67    1
    62    32    33    1
    63    32    68    1
    64    33    34    1
    65    33    69    1
    66    34    35    1
    67    34    70    1
    68    35    38    1
    69    35    71    1
    70    36    73    1
    71    36    74    1
    72    36    75    1
    73    37    40    1
    74    37    77    1
    75    37    78    1
    76    38    81    1
    77    38    82    1
    78    38    83    1
    79    39    41    1
    80    40    42    1
    81    40    87    1
    82    40    88    1
    83    41    43    2
    84    41    89    1
    85    42    44   ar
    86    42    45   ar
    87    43    46    1
    88    43    90    1
    89    44    47   ar
    90    44    91    1
    91    45    48   ar
    92    45    92    1
    93    46    50   ar
    94    46    51   ar
    95    47    49   ar
    96    48    49   ar
    97    48    93    1
    98    50    52   ar
    99    50    94    1
   100    51    53   ar
   101    51    95    1
   102    52    54   ar
   103    53    54   ar
   104    53    97    1
