@<TRIPOS>MOLECULE
IMPHY002241
 26 25 0 0 0
SMALL
GASTEIGER

@<TRIPOS>ATOM
      1 O           6.0010   -1.0950    0.0000 O.3     1  UNL1       -0.3902
      2 O           2.5369   -0.0950    0.0000 O.3     1  UNL1       -0.4795
      3 OXT         3.4030    1.4050    0.0000 O.2     1  UNL1       -0.2493
      4 O           8.5991    1.4050    0.0000 O.2     1  UNL1       -0.2531
      5 N           7.7331   -0.0950    0.0000 N.am    1  UNL1       -0.2971
      6 N           4.2690   -1.0950    0.0000 N.3     1  UNL1       -0.3183
      7 N           9.4651   -0.0950    0.0000 N.am    1  UNL1       -0.3134
      8 C           5.1350    0.4050    0.0000 C.3     1  UNL1        0.0002
      9 C           6.0010   -0.0950    0.0000 C.3     1  UNL1        0.0727
     10 CA          4.2690   -0.0950    0.0000 C.3     1  UNL1        0.1056
     11 C           6.8671    0.4050    0.0000 C.3     1  UNL1        0.0391
     12 C           3.4030    0.4050    0.0000 C.2     1  UNL1        0.3218
     13 C           8.5991    0.4050    0.0000 C.2     1  UNL1        0.2971
     14 H           5.5335    0.8799    0.0000 H       1  UNL1        0.0311
     15 H           4.7365    0.8799    0.0000 H       1  UNL1        0.0311
     16 H           6.5380   -0.4050    0.0000 H       1  UNL1        0.0609
     17 HA          4.8059   -0.4050    0.0000 H       1  UNL1        0.0575
     18 H           7.2656    0.8799    0.0000 H       1  UNL1        0.0488
     19 H           6.4685    0.8799    0.0000 H       1  UNL1        0.0488
     20 H           7.7331   -0.7150    0.0000 H       1  UNL1        0.1503
     21 H1          3.7320   -1.4050    0.0000 H       1  UNL1        0.1190
     22 H2          4.8059   -1.4050    0.0000 H       1  UNL1        0.1190
     23 H           6.5380   -1.4050    0.0000 H       1  UNL1        0.2098
     24 H           2.0000    0.2150    0.0000 H       1  UNL1        0.2951
     25 H          10.0021    0.2150    0.0000 H       1  UNL1        0.1465
     26 H           9.4651   -0.7150    0.0000 H       1  UNL1        0.1465
@<TRIPOS>BOND
     1     9     1    1
     2     1    23    1
     3     2    12    1
     4     2    24    1
     5     3    12    2
     6     4    13    2
     7     5    11    1
     8     5    13   am
     9     5    20    1
    10    10     6    1
    11     6    21    1
    12     6    22    1
    13     7    13   am
    14     7    25    1
    15     7    26    1
    16     8     9    1
    17     8    10    1
    18     8    14    1
    19     8    15    1
    20     9    11    1
    21     9    16    1
    22    10    12    1
    23    10    17    1
    24    11    18    1
    25    11    19    1
