@<TRIPOS>MOLECULE
IMPHY000154
 59 62 0 0 0
SMALL
GASTEIGER

@<TRIPOS>ATOM
      1 O           5.1350   -1.6725    0.0000 O.3     1  UNL1       -0.3313
      2 O           6.8671   -1.6725    0.0000 O.3     1  UNL1       -0.4569
      3 O           5.1350   -4.6725    0.0000 O.3     1  UNL1       -0.3864
      4 O           3.4030   -3.6725    0.0000 O.3     1  UNL1       -0.3865
      5 O           6.8671   -3.6725    0.0000 O.3     1  UNL1       -0.3829
      6 O           2.5369   -2.1725    0.0000 O.3     1  UNL1       -0.3924
      7 O           8.6431    1.3343    0.0000 O.2     1  UNL1       -0.4543
      8 O           5.1350   -0.6725    0.0000 O.3     1  UNL1       -0.4885
      9 O           5.1350    1.3275    0.0000 O.3     1  UNL1       -0.5027
     10 O           5.9793    2.8589    0.0000 O.2     1  UNL1       -0.2869
     11 O          12.1152    2.3626    0.0000 O.3     1  UNL1       -0.4914
     12 O          12.1229    4.3625    0.0000 O.3     1  UNL1       -0.5033
     13 C           5.1350   -3.6725    0.0000 C.3     1  UNL1        0.1152
     14 C           4.2690   -3.1725    0.0000 C.3     1  UNL1        0.1120
     15 C           6.0010   -3.1725    0.0000 C.3     1  UNL1        0.1454
     16 C           4.2690   -2.1725    0.0000 C.3     1  UNL1        0.1140
     17 C           6.0010   -2.1725    0.0000 C.3     1  UNL1        0.2310
     18 C           3.4030   -1.6725    0.0000 C.3     1  UNL1        0.0731
     19 C           6.8671   -0.6725    0.0000 C.ar    1  UNL1        0.1726
     20 C           6.0010   -0.1725    0.0000 C.ar    1  UNL1        0.2044
     21 C           7.7331   -0.1725    0.0000 C.ar    1  UNL1        0.0271
     22 C           7.7331    0.8275    0.0000 C.ar    1  UNL1        0.1465
     23 C           6.8671    1.3275    0.0000 C.ar    1  UNL1        0.1091
     24 C           6.0010    0.8275    0.0000 C.ar    1  UNL1        0.1768
     25 C           6.8510    2.3690    0.0000 C.ar    1  UNL1        0.1967
     26 C           8.6511    2.3759    0.0000 C.ar    1  UNL1        0.1393
     27 C           7.7490    2.8967    0.0000 C.ar    1  UNL1        0.0288
     28 C           9.5191    2.8726    0.0000 C.ar    1  UNL1        0.0211
     29 C           4.2690   -0.1725    0.0000 C.3     1  UNL1        0.0791
     30 C          10.3832    2.3692    0.0000 C.ar    1  UNL1       -0.0057
     31 C           9.5229    3.8726    0.0000 C.ar    1  UNL1       -0.0474
     32 C          11.2511    2.8659    0.0000 C.ar    1  UNL1        0.1619
     33 C          10.3909    4.3692    0.0000 C.ar    1  UNL1       -0.0159
     34 C          11.2550    3.8659    0.0000 C.ar    1  UNL1        0.1585
     35 C          12.9831    2.8592    0.0000 C.3     1  UNL1        0.0790
     36 H           4.5981   -3.9825    0.0000 H       1  UNL1        0.0648
     37 H           4.2690   -3.7925    0.0000 H       1  UNL1        0.0647
     38 H           6.0010   -3.7925    0.0000 H       1  UNL1        0.0683
     39 H           4.2690   -1.5525    0.0000 H       1  UNL1        0.0647
     40 H           6.0010   -1.5525    0.0000 H       1  UNL1        0.1084
     41 H           3.8015   -1.1976    0.0000 H       1  UNL1        0.0584
     42 H           3.0044   -1.1976    0.0000 H       1  UNL1        0.0584
     43 H           4.5981   -4.9825    0.0000 H       1  UNL1        0.2100
     44 H           3.4030   -4.2925    0.0000 H       1  UNL1        0.2100
     45 H           6.8671   -4.2925    0.0000 H       1  UNL1        0.2102
     46 H           2.0000   -1.8625    0.0000 H       1  UNL1        0.2095
     47 H           8.2700   -0.4825    0.0000 H       1  UNL1        0.0692
     48 H           7.7466    3.5167    0.0000 H       1  UNL1        0.0693
     49 H           4.5981    1.0175    0.0000 H       1  UNL1        0.2923
     50 H           4.5790    0.3644    0.0000 H       1  UNL1        0.0660
     51 H           3.7320    0.1375    0.0000 H       1  UNL1        0.0660
     52 H           3.9590   -0.7095    0.0000 H       1  UNL1        0.0660
     53 H          10.3808    1.7492    0.0000 H       1  UNL1        0.0662
     54 H           8.9872    4.1846    0.0000 H       1  UNL1        0.0626
     55 H          10.3933    4.9892    0.0000 H       1  UNL1        0.0655
     56 H          12.1253    4.9825    0.0000 H       1  UNL1        0.2923
     57 H          13.2911    2.3211    0.0000 H       1  UNL1        0.0660
     58 H          13.5213    3.1671    0.0000 H       1  UNL1        0.0660
     59 H          12.6752    3.3973    0.0000 H       1  UNL1        0.0660
@<TRIPOS>BOND
     1     1    16    1
     2     1    17    1
     3    17     2    1
     4     2    19    1
     5    13     3    1
     6     3    43    1
     7    14     4    1
     8     4    44    1
     9    15     5    1
    10     5    45    1
    11     6    18    1
    12     6    46    1
    13     7    22   ar
    14     7    26   ar
    15     8    20    1
    16     8    29    1
    17     9    24    1
    18     9    49    1
    19    10    25    2
    20    11    32    1
    21    11    35    1
    22    12    34    1
    23    12    56    1
    24    13    14    1
    25    13    15    1
    26    13    36    1
    27    14    16    1
    28    14    37    1
    29    15    17    1
    30    15    38    1
    31    16    18    1
    32    16    39    1
    33    17    40    1
    34    18    41    1
    35    18    42    1
    36    19    20   ar
    37    19    21   ar
    38    20    24   ar
    39    21    22   ar
    40    21    47    1
    41    22    23   ar
    42    23    24   ar
    43    23    25   ar
    44    25    27   ar
    45    26    27   ar
    46    26    28    1
    47    27    48    1
    48    28    30   ar
    49    28    31   ar
    50    29    50    1
    51    29    51    1
    52    29    52    1
    53    30    32   ar
    54    30    53    1
    55    31    33   ar
    56    31    54    1
    57    32    34   ar
    58    33    34   ar
    59    33    55    1
    60    35    57    1
    61    35    58    1
    62    35    59    1
