@<TRIPOS>MOLECULE
IMPHY016871
 33 34 0 0 0
SMALL
GASTEIGER

@<TRIPOS>ATOM
      1 O           3.2040   -1.1421    0.0000 O.3     1  UNL1       -0.3725
      2 C           5.7890    0.7317    0.0000 C.3     1  UNL1       -0.0229
      3 C           4.3901    0.7229    0.0000 C.3     1  UNL1       -0.0049
      4 C           4.6489    1.6888    0.0000 C.3     1  UNL1       -0.0142
      5 C           3.9123    2.6714    0.0000 C.3     1  UNL1       -0.0400
      6 C           3.1691   -0.1427    0.0000 C.3     1  UNL1        0.0804
      7 C           2.6157    1.3777    0.0000 C.2     1  UNL1       -0.0705
      8 C           6.2890   -0.1343    0.0000 C.3     1  UNL1       -0.0589
      9 C           6.6550    1.2317    0.0000 C.3     1  UNL1       -0.0589
     10 C           2.3400    0.4164    0.0000 C.2     1  UNL1       -0.0561
     11 C           2.0000    2.1657    0.0000 C.3     1  UNL1       -0.0434
     12 C           2.3559   -1.6721    0.0000 C.3     1  UNL1        0.0456
     13 C           2.3908   -2.6714    0.0000 C.3     1  UNL1       -0.0415
     14 H           4.5801    0.1328    0.0000 H       1  UNL1        0.0334
     15 H           5.0992    2.1150    0.0000 H       1  UNL1        0.0351
     16 H           4.2301    3.2038    0.0000 H       1  UNL1        0.0275
     17 H           3.2992    2.7634    0.0000 H       1  UNL1        0.0275
     18 H           2.6268   -0.4433    0.0000 H       1  UNL1        0.0643
     19 H           5.7521   -0.4443    0.0000 H       1  UNL1        0.0235
     20 H           6.5990   -0.6712    0.0000 H       1  UNL1        0.0235
     21 H           6.8260    0.1757    0.0000 H       1  UNL1        0.0235
     22 H           6.9650    0.6948    0.0000 H       1  UNL1        0.0235
     23 H           7.1920    1.5417    0.0000 H       1  UNL1        0.0235
     24 H           6.3450    1.7687    0.0000 H       1  UNL1        0.0235
     25 H           1.7574    0.2044    0.0000 H       1  UNL1        0.0597
     26 H           2.4886    2.5474    0.0000 H       1  UNL1        0.0274
     27 H           1.6183    2.6543    0.0000 H       1  UNL1        0.0274
     28 H           1.5114    1.7840    0.0000 H       1  UNL1        0.0274
     29 H           2.1237   -1.0972    0.0000 H       1  UNL1        0.0557
     30 H           1.7495   -1.8010    0.0000 H       1  UNL1        0.0557
     31 H           1.7712   -2.6931    0.0000 H       1  UNL1        0.0252
     32 H           2.4125   -3.2911    0.0000 H       1  UNL1        0.0252
     33 H           3.0104   -2.6498    0.0000 H       1  UNL1        0.0252
@<TRIPOS>BOND
     1     1     6    1
     2     1    12    1
     3     2     3    1
     4     2     4    1
     5     2     8    1
     6     2     9    1
     7     3     5    1
     8     3     6    1
     9     3    14    1
    10     4     5    1
    11     4     7    1
    12     4    15    1
    13     5    16    1
    14     5    17    1
    15     6    10    1
    16     6    18    1
    17     7    10    2
    18     7    11    1
    19     8    19    1
    20     8    20    1
    21     8    21    1
    22     9    22    1
    23     9    23    1
    24     9    24    1
    25    10    25    1
    26    11    26    1
    27    11    27    1
    28    11    28    1
    29    12    13    1
    30    12    29    1
    31    12    30    1
    32    13    31    1
    33    13    32    1
    34    13    33    1
