@<TRIPOS>MOLECULE
IMPHY005585
 49 51 0 0 0
SMALL
GASTEIGER

@<TRIPOS>ATOM
      1 O           5.1274   -2.6929    0.0000 O.2     1  UNL1       -0.2964
      2 O           5.9602   -1.5065    0.0000 O.2     1  UNL1       -0.2957
      3 O           2.2457    1.6104    0.0000 O.2     1  UNL1       -0.2924
      4 C           3.4380   -0.7404    0.0000 C.3     1  UNL1       -0.0096
      5 C           4.3777   -1.0825    0.0000 C.3     1  UNL1        0.0884
      6 C           2.8281   -1.5254    0.0000 C.3     1  UNL1       -0.0237
      7 C           3.3847   -2.3490    0.0000 C.3     1  UNL1        0.0123
      8 C           4.3405   -2.0758    0.0000 C.2     1  UNL1        0.1471
      9 C           2.9380    0.1256    0.0000 C.3     1  UNL1        0.0147
     10 C           5.3174   -0.7404    0.0000 C.2     1  UNL1        0.1539
     11 C           5.8174    0.1256    0.0000 C.3     1  UNL1        0.0437
     12 C           5.3174   -1.4245    0.0000 C.3     1  UNL1       -0.0457
     13 C           2.0000   -2.0860    0.0000 C.3     1  UNL1       -0.0591
     14 C           2.0390   -0.9111    0.0000 C.3     1  UNL1       -0.0591
     15 C           6.8022   -0.0102    0.0000 C.3     1  UNL1       -0.0334
     16 C           5.6438    1.1104    0.0000 C.2     1  UNL1       -0.0404
     17 C           7.2372    0.8836    0.0000 C.3     1  UNL1       -0.0242
     18 C           3.1117    1.1104    0.0000 C.2     1  UNL1        0.1593
     19 C           6.5227    1.5748    0.0000 C.2     1  UNL1       -0.0773
     20 C           3.8777    1.7532    0.0000 C.2     1  UNL1       -0.0078
     21 C           4.8777    1.7532    0.0000 C.2     1  UNL1       -0.0520
     22 C           8.2220    1.0573    0.0000 C.3     1  UNL1       -0.0589
     23 C           3.5357    2.6929    0.0000 C.3     1  UNL1       -0.0364
     24 H           2.5900   -0.6823    0.0000 H       1  UNL1        0.0324
     25 H           2.8373   -2.6402    0.0000 H       1  UNL1        0.0347
     26 H           3.6168   -2.9239    0.0000 H       1  UNL1        0.0347
     27 H           2.3840    0.4038    0.0000 H       1  UNL1        0.0348
     28 H           2.5126   -0.3254    0.0000 H       1  UNL1        0.0348
     29 H           6.1910   -0.6379    0.0000 H       1  UNL1        0.0426
     30 H           5.1054   -2.0071    0.0000 H       1  UNL1        0.0243
     31 H           5.9000   -1.6365    0.0000 H       1  UNL1        0.0243
     32 H           5.5295   -0.8419    0.0000 H       1  UNL1        0.0243
     33 H           1.6524   -1.5726    0.0000 H       1  UNL1        0.0235
     34 H           1.4866   -2.4336    0.0000 H       1  UNL1        0.0235
     35 H           2.3476   -2.5994    0.0000 H       1  UNL1        0.0235
     36 H           2.4199   -0.4219    0.0000 H       1  UNL1        0.0235
     37 H           1.5498   -0.5302    0.0000 H       1  UNL1        0.0235
     38 H           1.6581   -1.4003    0.0000 H       1  UNL1        0.0235
     39 H           6.6534   -0.6121    0.0000 H       1  UNL1        0.0281
     40 H           7.3851   -0.2214    0.0000 H       1  UNL1        0.0281
     41 H           7.6105    0.3886    0.0000 H       1  UNL1        0.0341
     42 H           6.6101    2.1886    0.0000 H       1  UNL1        0.0578
     43 H           5.0898    2.3358    0.0000 H       1  UNL1        0.0624
     44 H           8.3297    0.4467    0.0000 H       1  UNL1        0.0235
     45 H           8.8326    1.1650    0.0000 H       1  UNL1        0.0235
     46 H           8.1143    1.6679    0.0000 H       1  UNL1        0.0235
     47 H           4.1183    2.9049    0.0000 H       1  UNL1        0.0279
     48 H           3.3237    3.2755    0.0000 H       1  UNL1        0.0279
     49 H           2.9531    2.4808    0.0000 H       1  UNL1        0.0279
@<TRIPOS>BOND
     1     1     8    2
     2     2    10    2
     3     3    18    2
     4     4     5    1
     5     4     6    1
     6     4     9    1
     7     4    24    1
     8     5     8    1
     9     5    10    1
    10     5    12    1
    11     6     7    1
    12     6    13    1
    13     6    14    1
    14     7     8    1
    15     7    25    1
    16     7    26    1
    17     9    18    1
    18     9    27    1
    19     9    28    1
    20    10    11    1
    21    11    15    1
    22    11    16    1
    23    11    29    1
    24    12    30    1
    25    12    31    1
    26    12    32    1
    27    13    33    1
    28    13    34    1
    29    13    35    1
    30    14    36    1
    31    14    37    1
    32    14    38    1
    33    15    17    1
    34    15    39    1
    35    15    40    1
    36    16    19    2
    37    16    21    1
    38    17    19    1
    39    17    22    1
    40    17    41    1
    41    18    20    1
    42    19    42    1
    43    20    21    2
    44    20    23    1
    45    21    43    1
    46    22    44    1
    47    22    45    1
    48    22    46    1
    49    23    47    1
    50    23    48    1
    51    23    49    1
