@<TRIPOS>MOLECULE
IMPHY005703
 47 50 0 0 0
SMALL
GASTEIGER

@<TRIPOS>ATOM
      1 S           8.9962    1.5173    0.0000 S.O2    1  UNL1        0.0403
      2 O           4.6660    2.0173    0.0000 O.3     1  UNL1       -0.4932
      3 O           9.4962    2.3834    0.0000 O.2     1  UNL1       -0.1555
      4 O           8.4962    0.6513    0.0000 O.2     1  UNL1       -0.1555
      5 N           4.6660    0.0173    0.0000 N.pl3   1  UNL1       -0.3106
      6 N           4.6660   -2.9827    0.0000 N.ar    1  UNL1       -0.2466
      7 N           8.1301    2.0173    0.0000 N.pl3   1  UNL1       -0.2208
      8 C           4.6660   -0.9827    0.0000 C.ar    1  UNL1        0.0500
      9 C           5.5321   -1.4827    0.0000 C.ar    1  UNL1        0.0221
     10 C           3.8000   -1.4827    0.0000 C.ar    1  UNL1        0.0221
     11 C           5.5321   -2.4827    0.0000 C.ar    1  UNL1        0.0735
     12 C           3.8000   -2.4827    0.0000 C.ar    1  UNL1        0.0735
     13 C           5.5321    0.5173    0.0000 C.ar    1  UNL1        0.0737
     14 C           6.4260   -0.9480    0.0000 C.ar    1  UNL1       -0.0508
     15 C           2.9061   -0.9480    0.0000 C.ar    1  UNL1       -0.0508
     16 C           5.5321    1.5173    0.0000 C.ar    1  UNL1        0.1429
     17 C           7.2641    1.5173    0.0000 C.ar    1  UNL1        0.0512
     18 C           6.3981    0.0173    0.0000 C.ar    1  UNL1       -0.0352
     19 C           6.4260   -3.0173    0.0000 C.ar    1  UNL1       -0.0357
     20 C           2.9061   -3.0173    0.0000 C.ar    1  UNL1       -0.0357
     21 C           6.3981    2.0173    0.0000 C.ar    1  UNL1        0.0043
     22 C           7.2641    0.5173    0.0000 C.ar    1  UNL1       -0.0374
     23 C           7.3321   -1.4619    0.0000 C.ar    1  UNL1       -0.0610
     24 C           2.0000   -1.4619    0.0000 C.ar    1  UNL1       -0.0610
     25 C           7.3321   -2.5035    0.0000 C.ar    1  UNL1       -0.0597
     26 C           2.0000   -2.5035    0.0000 C.ar    1  UNL1       -0.0597
     27 C           9.8622    1.0173    0.0000 C.3     1  UNL1        0.0736
     28 C           4.6660    3.0173    0.0000 C.3     1  UNL1        0.0789
     29 H           4.1291    0.3273    0.0000 H       1  UNL1        0.1523
     30 H           6.4188   -0.3280    0.0000 H       1  UNL1        0.0625
     31 H           2.9132   -0.3280    0.0000 H       1  UNL1        0.0625
     32 H           6.3981   -0.6027    0.0000 H       1  UNL1        0.0638
     33 H           6.4188   -3.6373    0.0000 H       1  UNL1        0.0639
     34 H           2.9132   -3.6373    0.0000 H       1  UNL1        0.0639
     35 H           6.3981    2.6373    0.0000 H       1  UNL1        0.0674
     36 H           7.8010    0.2073    0.0000 H       1  UNL1        0.0637
     37 H           7.8678   -1.1498    0.0000 H       1  UNL1        0.0618
     38 H           1.4643   -1.1498    0.0000 H       1  UNL1        0.0618
     39 H           7.8678   -2.8156    0.0000 H       1  UNL1        0.0618
     40 H           1.4643   -2.8156    0.0000 H       1  UNL1        0.0618
     41 H           8.1301    2.6373    0.0000 H       1  UNL1        0.1733
     42 H           9.5522    0.4804    0.0000 H       1  UNL1        0.0482
     43 H          10.3991    0.7073    0.0000 H       1  UNL1        0.0482
     44 H          10.1722    1.5543    0.0000 H       1  UNL1        0.0482
     45 H           5.2860    3.0173    0.0000 H       1  UNL1        0.0660
     46 H           4.6660    3.6373    0.0000 H       1  UNL1        0.0660
     47 H           4.0460    3.0173    0.0000 H       1  UNL1        0.0660
@<TRIPOS>BOND
     1     1     3    2
     2     1     4    2
     3     1     7    1
     4     1    27    1
     5     2    16    1
     6     2    28    1
     7     5     8    1
     8     5    13    1
     9     5    29    1
    10     6    11   ar
    11     6    12   ar
    12     7    17    1
    13     7    41    1
    14     8     9   ar
    15     8    10   ar
    16     9    11   ar
    17     9    14   ar
    18    10    12   ar
    19    10    15   ar
    20    11    19   ar
    21    12    20   ar
    22    13    16   ar
    23    13    18   ar
    24    14    23   ar
    25    14    30    1
    26    15    24   ar
    27    15    31    1
    28    16    21   ar
    29    17    21   ar
    30    17    22   ar
    31    18    22   ar
    32    18    32    1
    33    19    25   ar
    34    19    33    1
    35    20    26   ar
    36    20    34    1
    37    21    35    1
    38    22    36    1
    39    23    25   ar
    40    23    37    1
    41    24    26   ar
    42    24    38    1
    43    25    39    1
    44    26    40    1
    45    27    42    1
    46    27    43    1
    47    27    44    1
    48    28    45    1
    49    28    46    1
    50    28    47    1
