@<TRIPOS>MOLECULE
IMPHY014515
 26 27 0 0 0
SMALL
GASTEIGER

@<TRIPOS>ATOM
      1 O           2.3090    0.9130    0.0000 O.3     1  UNL1       -0.3787
      2 N           4.5472   -1.5550    0.0000 N.3     1  UNL1       -0.2921
      3 C           4.5472   -0.5550    0.0000 C.3     1  UNL1        0.0342
      4 C           5.4935   -0.2503    0.0000 C.3     1  UNL1       -0.0323
      5 C           5.4935   -1.8597    0.0000 C.3     1  UNL1       -0.0002
      6 C           6.0771   -1.0550    0.0000 C.3     1  UNL1       -0.0385
      7 C           3.5962   -0.2460    0.0000 C.2     1  UNL1       -0.0299
      8 C           3.5962   -1.8640    0.0000 C.3     1  UNL1        0.0180
      9 C           3.0084   -1.0550    0.0000 C.2     1  UNL1       -0.0672
     10 C           3.2872    0.7051    0.0000 C.3     1  UNL1        0.0699
     11 C           2.0000    1.8640    0.0000 C.3     1  UNL1        0.0369
     12 H           4.5483    0.2950    0.0000 H       1  UNL1        0.0510
     13 H           6.0308    0.0589    0.0000 H       1  UNL1        0.0284
     14 H           5.2424    0.3166    0.0000 H       1  UNL1        0.0284
     15 H           5.2424   -2.4266    0.0000 H       1  UNL1        0.0427
     16 H           6.0308   -2.1690    0.0000 H       1  UNL1        0.0427
     17 H           6.5379   -1.4697    0.0000 H       1  UNL1        0.0278
     18 H           6.5379   -0.6403    0.0000 H       1  UNL1        0.0278
     19 H           3.0592   -2.1740    0.0000 H       1  UNL1        0.0470
     20 H           3.8484   -2.4304    0.0000 H       1  UNL1        0.0470
     21 H           2.3884   -1.0550    0.0000 H       1  UNL1        0.0586
     22 H           3.9011    0.7913    0.0000 H       1  UNL1        0.0607
     23 H           3.3088    1.3247    0.0000 H       1  UNL1        0.0607
     24 H           2.5897    2.0556    0.0000 H       1  UNL1        0.0524
     25 H           1.8084    2.4537    0.0000 H       1  UNL1        0.0524
     26 H           1.4103    1.6724    0.0000 H       1  UNL1        0.0524
@<TRIPOS>BOND
     1     1    10    1
     2     1    11    1
     3     2     3    1
     4     2     5    1
     5     2     8    1
     6     3     4    1
     7     3     7    1
     8     3    12    1
     9     4     6    1
    10     4    13    1
    11     4    14    1
    12     5     6    1
    13     5    15    1
    14     5    16    1
    15     6    17    1
    16     6    18    1
    17     7     9    2
    18     7    10    1
    19     8     9    1
    20     8    19    1
    21     8    20    1
    22     9    21    1
    23    10    22    1
    24    10    23    1
    25    11    24    1
    26    11    25    1
    27    11    26    1
