@<TRIPOS>MOLECULE
IMPHY016545
 39 40 0 0 0
SMALL
GASTEIGER

@<TRIPOS>ATOM
      1 O           6.6962    2.1830    0.0000 O.3     1  UNL1       -0.3635
      2 O           5.4641    0.3170    0.0000 O.3     1  UNL1       -0.4253
      3 O           8.9282   -1.6830    0.0000 O.3     1  UNL1       -0.4951
      4 O           4.5981   -1.1830    0.0000 O.2     1  UNL1       -0.2501
      5 C           7.1962    1.3170    0.0000 C.3     1  UNL1        0.1134
      6 C           7.6962    2.1830    0.0000 C.3     1  UNL1        0.0871
      7 C           7.1962    0.3170    0.0000 C.ar    1  UNL1        0.0294
      8 C           8.5622    2.6830    0.0000 C.3     1  UNL1       -0.0359
      9 C           6.3301   -0.1830    0.0000 C.ar    1  UNL1        0.1376
     10 C           8.0622   -0.1830    0.0000 C.ar    1  UNL1       -0.0107
     11 C           6.3301   -1.1830    0.0000 C.ar    1  UNL1       -0.0154
     12 C           8.0622   -1.1830    0.0000 C.ar    1  UNL1        0.1207
     13 C           3.7320    0.3170    0.0000 C.3     1  UNL1        0.0538
     14 C           7.1962   -1.6830    0.0000 C.ar    1  UNL1       -0.0165
     15 C           4.5981   -0.1830    0.0000 C.2     1  UNL1        0.3152
     16 C           2.8660   -0.1830    0.0000 C.3     1  UNL1       -0.0432
     17 C           3.7320    1.3170    0.0000 C.3     1  UNL1       -0.0523
     18 C           2.0000    0.3170    0.0000 C.3     1  UNL1       -0.0645
     19 C           8.9282   -2.6830    0.0000 C.3     1  UNL1        0.0788
     20 H           6.5973    1.1565    0.0000 H       1  UNL1        0.0674
     21 H           7.5357    2.7819    0.0000 H       1  UNL1        0.0623
     22 H           8.8722    2.1461    0.0000 H       1  UNL1        0.0255
     23 H           9.0991    2.9930    0.0000 H       1  UNL1        0.0255
     24 H           8.2522    3.2200    0.0000 H       1  UNL1        0.0255
     25 H           8.5991    0.1270    0.0000 H       1  UNL1        0.0659
     26 H           5.7932   -1.4930    0.0000 H       1  UNL1        0.0655
     27 H           4.2690    0.6270    0.0000 H       1  UNL1        0.0411
     28 H           7.1962   -2.3030    0.0000 H       1  UNL1        0.0655
     29 H           2.4675   -0.6580    0.0000 H       1  UNL1        0.0270
     30 H           3.2646   -0.6580    0.0000 H       1  UNL1        0.0270
     31 H           4.3520    1.3170    0.0000 H       1  UNL1        0.0238
     32 H           3.7320    1.9370    0.0000 H       1  UNL1        0.0238
     33 H           3.1120    1.3170    0.0000 H       1  UNL1        0.0238
     34 H           2.3100    0.8539    0.0000 H       1  UNL1        0.0230
     35 H           1.4631    0.6270    0.0000 H       1  UNL1        0.0230
     36 H           1.6900   -0.2199    0.0000 H       1  UNL1        0.0230
     37 H           8.3082   -2.6830    0.0000 H       1  UNL1        0.0660
     38 H           8.9282   -3.3030    0.0000 H       1  UNL1        0.0660
     39 H           9.5482   -2.6830    0.0000 H       1  UNL1        0.0660
@<TRIPOS>BOND
     1     1     5    1
     2     1     6    1
     3     2     9    1
     4     2    15    1
     5     3    12    1
     6     3    19    1
     7     4    15    2
     8     5     6    1
     9     5     7    1
    10     5    20    1
    11     6     8    1
    12     6    21    1
    13     7     9   ar
    14     7    10   ar
    15     8    22    1
    16     8    23    1
    17     8    24    1
    18     9    11   ar
    19    10    12   ar
    20    10    25    1
    21    11    14   ar
    22    11    26    1
    23    12    14   ar
    24    13    15    1
    25    13    16    1
    26    13    17    1
    27    13    27    1
    28    14    28    1
    29    16    18    1
    30    16    29    1
    31    16    30    1
    32    17    31    1
    33    17    32    1
    34    17    33    1
    35    18    34    1
    36    18    35    1
    37    18    36    1
    38    19    37    1
    39    19    38    1
    40    19    39    1
