@<TRIPOS>MOLECULE
IMPHY002985
 39 40 0 0 0
SMALL
GASTEIGER

@<TRIPOS>ATOM
      1 O           3.4030    0.6900    0.0000 O.3     1  UNL1       -0.3867
      2 O           4.2690   -3.8100    0.0000 O.3     1  UNL1       -0.4885
      3 O           4.2690    2.1900    0.0000 O.2     1  UNL1       -0.2918
      4 O           6.0010   -2.8100    0.0000 O.3     1  UNL1       -0.5032
      5 O           2.5369   -2.8100    0.0000 O.3     1  UNL1       -0.5032
      6 O           5.1350    3.6900    0.0000 O.3     1  UNL1       -0.5059
      7 O           8.5991    3.6900    0.0000 O.3     1  UNL1       -0.5066
      8 C           4.2690    0.1900    0.0000 C.3     1  UNL1        0.0874
      9 C           5.1350    0.6900    0.0000 C.3     1  UNL1        0.0408
     10 C           4.2690   -0.8100    0.0000 C.ar    1  UNL1       -0.0116
     11 C           5.1350    1.6900    0.0000 C.2     1  UNL1        0.1694
     12 C           3.4030   -1.3100    0.0000 C.ar    1  UNL1       -0.0106
     13 C           5.1350   -1.3100    0.0000 C.ar    1  UNL1       -0.0106
     14 C           6.0010    2.1900    0.0000 C.ar    1  UNL1        0.0591
     15 C           5.1350   -2.3100    0.0000 C.ar    1  UNL1        0.1625
     16 C           3.4030   -2.3100    0.0000 C.ar    1  UNL1        0.1625
     17 C           4.2690   -2.8100    0.0000 C.ar    1  UNL1        0.2031
     18 C           6.0010    3.1900    0.0000 C.ar    1  UNL1        0.1308
     19 C           6.8671    1.6900    0.0000 C.ar    1  UNL1       -0.0443
     20 C           6.8671    3.6900    0.0000 C.ar    1  UNL1        0.0220
     21 C           7.7331    2.1900    0.0000 C.ar    1  UNL1       -0.0193
     22 C           7.7331    3.1900    0.0000 C.ar    1  UNL1        0.1204
     23 C           3.4030   -4.3100    0.0000 C.3     1  UNL1        0.0791
     24 H           4.2690    0.8100    0.0000 H       1  UNL1        0.0648
     25 H           5.3471    0.1074    0.0000 H       1  UNL1        0.0374
     26 H           5.7456    0.7977    0.0000 H       1  UNL1        0.0374
     27 H           2.8660   -1.0000    0.0000 H       1  UNL1        0.0659
     28 H           5.6720   -1.0000    0.0000 H       1  UNL1        0.0659
     29 H           3.4030    1.3100    0.0000 H       1  UNL1        0.2102
     30 H           6.8671    1.0700    0.0000 H       1  UNL1        0.0627
     31 H           6.8671    4.3100    0.0000 H       1  UNL1        0.0691
     32 H           8.2700    1.8800    0.0000 H       1  UNL1        0.0654
     33 H           6.5380   -2.5000    0.0000 H       1  UNL1        0.2923
     34 H           2.0000   -2.5000    0.0000 H       1  UNL1        0.2923
     35 H           5.1350    4.3100    0.0000 H       1  UNL1        0.2922
     36 H           3.0930   -3.7731    0.0000 H       1  UNL1        0.0660
     37 H           2.8660   -4.6200    0.0000 H       1  UNL1        0.0660
     38 H           3.7130   -4.8469    0.0000 H       1  UNL1        0.0660
     39 H           9.1360    3.3800    0.0000 H       1  UNL1        0.2921
@<TRIPOS>BOND
     1     1     8    1
     2     1    29    1
     3     2    17    1
     4     2    23    1
     5     3    11    2
     6     4    15    1
     7     4    33    1
     8     5    16    1
     9     5    34    1
    10     6    18    1
    11     6    35    1
    12     7    22    1
    13     7    39    1
    14     8     9    1
    15     8    10    1
    16     8    24    1
    17     9    11    1
    18     9    25    1
    19     9    26    1
    20    10    12   ar
    21    10    13   ar
    22    11    14    1
    23    12    16   ar
    24    12    27    1
    25    13    15   ar
    26    13    28    1
    27    14    18   ar
    28    14    19   ar
    29    15    17   ar
    30    16    17   ar
    31    18    20   ar
    32    19    21   ar
    33    19    30    1
    34    20    22   ar
    35    20    31    1
    36    21    22   ar
    37    21    32    1
    38    23    36    1
    39    23    37    1
    40    23    38    1
