@<TRIPOS>MOLECULE
IMPHY002465
 30 32 0 0 0
SMALL
GASTEIGER

@<TRIPOS>ATOM
      1 O           6.4144    1.8592    0.0000 O.3     1  UNL1       -0.5056
      2 O           8.1962   -1.1995    0.0000 O.3     1  UNL1       -0.5063
      3 O           4.6660    1.8246    0.0000 O.2     1  UNL1       -0.2865
      4 O           4.6660   -2.1754    0.0000 O.2     1  UNL1       -0.2866
      5 O           9.0641    0.3521    0.0000 O.3     1  UNL1       -0.3902
      6 C           5.5321    0.3246    0.0000 C.ar    1  UNL1        0.0750
      7 C           5.5321   -0.6754    0.0000 C.ar    1  UNL1        0.0401
      8 C           3.8000    0.3246    0.0000 C.ar    1  UNL1        0.0332
      9 C           3.8000   -0.6754    0.0000 C.ar    1  UNL1        0.0331
     10 C           6.4260    0.8593    0.0000 C.ar    1  UNL1        0.1372
     11 C           4.6660    0.8246    0.0000 C.2     1  UNL1        0.1980
     12 C           4.6660   -1.1754    0.0000 C.2     1  UNL1        0.1947
     13 C           7.3321    0.3454    0.0000 C.ar    1  UNL1        0.0612
     14 C           6.4260   -1.2100    0.0000 C.ar    1  UNL1       -0.0081
     15 C           7.3321   -0.6962    0.0000 C.ar    1  UNL1        0.1264
     16 C           2.9061    0.8593    0.0000 C.ar    1  UNL1       -0.0502
     17 C           2.9061   -1.2100    0.0000 C.ar    1  UNL1       -0.0502
     18 C           8.1962    0.8488    0.0000 C.3     1  UNL1        0.0762
     19 C           2.0000    0.3454    0.0000 C.ar    1  UNL1       -0.0610
     20 C           2.0000   -0.6962    0.0000 C.ar    1  UNL1       -0.0610
     21 H           6.4188   -1.8300    0.0000 H       1  UNL1        0.0661
     22 H           2.9132    1.4792    0.0000 H       1  UNL1        0.0625
     23 H           2.9132   -1.8300    0.0000 H       1  UNL1        0.0625
     24 H           8.5929    1.3252    0.0000 H       1  UNL1        0.0609
     25 H           7.7958    1.3222    0.0000 H       1  UNL1        0.0609
     26 H           1.4643    0.6575    0.0000 H       1  UNL1        0.0618
     27 H           1.4643   -1.0083    0.0000 H       1  UNL1        0.0618
     28 H           6.9478    2.1754    0.0000 H       1  UNL1        0.2922
     29 H           8.1938   -1.8195    0.0000 H       1  UNL1        0.2921
     30 H           9.5998    0.6642    0.0000 H       1  UNL1        0.2099
@<TRIPOS>BOND
     1     1    10    1
     2     1    28    1
     3     2    15    1
     4     2    29    1
     5     3    11    2
     6     4    12    2
     7     5    18    1
     8     5    30    1
     9     6     7   ar
    10     6    10   ar
    11     6    11    1
    12     7    12    1
    13     7    14   ar
    14     8     9   ar
    15     8    11    1
    16     8    16   ar
    17     9    12    1
    18     9    17   ar
    19    10    13   ar
    20    13    15   ar
    21    13    18    1
    22    14    15   ar
    23    14    21    1
    24    16    19   ar
    25    16    22    1
    26    17    20   ar
    27    17    23    1
    28    18    24    1
    29    18    25    1
    30    19    20   ar
    31    19    26    1
    32    20    27    1
