@<TRIPOS>MOLECULE
IMPHY012643
 32 34 0 0 0
SMALL
GASTEIGER

@<TRIPOS>ATOM
      1 O           7.2901    1.1624    0.0000 O.3     1  UNL1       -0.4833
      2 O           9.0602   -0.8965    0.0000 O.3     1  UNL1       -0.3875
      3 O           3.7702    1.1624    0.0000 O.2     1  UNL1       -0.4220
      4 O           2.0000    1.1518    0.0000 O.2     1  UNL1       -0.2452
      5 C           8.1962    0.6485    0.0000 C.3     1  UNL1        0.1310
      6 C           8.1962   -0.3931    0.0000 C.3     1  UNL1        0.0983
      7 C           7.2901   -0.9070    0.0000 C.3     1  UNL1        0.0057
      8 C           6.3961   -0.3723    0.0000 C.ar    1  UNL1       -0.0023
      9 C           6.3961    0.6277    0.0000 C.ar    1  UNL1        0.1282
     10 C           9.1962    0.6524    0.0000 C.3     1  UNL1       -0.0227
     11 C           8.6928    1.5164    0.0000 C.3     1  UNL1       -0.0227
     12 C           5.5301   -0.8723    0.0000 C.ar    1  UNL1       -0.0443
     13 C           5.5301    1.1277    0.0000 C.ar    1  UNL1        0.0234
     14 C           4.6641   -0.3723    0.0000 C.ar    1  UNL1        0.0181
     15 C           4.6641    0.6277    0.0000 C.ar    1  UNL1        0.1425
     16 C           3.7702   -0.9070    0.0000 C.ar    1  UNL1       -0.0443
     17 C           2.8641   -0.3931    0.0000 C.ar    1  UNL1        0.0236
     18 C           2.8641    0.6485    0.0000 C.ar    1  UNL1        0.3372
     19 H           8.1926   -1.0131    0.0000 H       1  UNL1        0.0636
     20 H           6.8855   -1.3768    0.0000 H       1  UNL1        0.0341
     21 H           7.6837   -1.3860    0.0000 H       1  UNL1        0.0341
     22 H           9.1985    0.0324    0.0000 H       1  UNL1        0.0269
     23 H           9.8162    0.6548    0.0000 H       1  UNL1        0.0269
     24 H           9.1938    1.2724    0.0000 H       1  UNL1        0.0269
     25 H           9.2310    1.2085    0.0000 H       1  UNL1        0.0269
     26 H           9.0008    2.0546    0.0000 H       1  UNL1        0.0269
     27 H           8.1547    1.8244    0.0000 H       1  UNL1        0.0269
     28 H           5.5301   -1.4923    0.0000 H       1  UNL1        0.0628
     29 H           5.5301    1.7477    0.0000 H       1  UNL1        0.0691
     30 H           9.0579   -1.5164    0.0000 H       1  UNL1        0.2100
     31 H           3.7773   -1.5269    0.0000 H       1  UNL1        0.0627
     32 H           2.3284   -0.7052    0.0000 H       1  UNL1        0.0689
@<TRIPOS>BOND
     1     1     5    1
     2     1     9    1
     3     2     6    1
     4     2    30    1
     5     3    15   ar
     6     3    18   ar
     7     4    18    2
     8     5     6    1
     9     5    10    1
    10     5    11    1
    11     6     7    1
    12     6    19    1
    13     7     8    1
    14     7    20    1
    15     7    21    1
    16     8     9   ar
    17     8    12   ar
    18     9    13   ar
    19    10    22    1
    20    10    23    1
    21    10    24    1
    22    11    25    1
    23    11    26    1
    24    11    27    1
    25    12    14   ar
    26    12    28    1
    27    13    15   ar
    28    13    29    1
    29    14    15   ar
    30    14    16   ar
    31    16    17   ar
    32    16    31    1
    33    17    18   ar
    34    17    32    1
