@<TRIPOS>MOLECULE
IMPHY014104
 25 26 0 0 0
SMALL
GASTEIGER

@<TRIPOS>ATOM
      1 O           6.0682   -1.5173    0.0000 O.2     1  UNL1       -0.2669
      2 O           9.5323   -0.5173    0.0000 O.3     1  UNL1       -0.3933
      3 O           2.5381    1.5068    0.0000 O.3     1  UNL1       -0.5067
      4 N           6.9343   -0.0173    0.0000 N.ar    1  UNL1       -0.2965
      5 N           6.0682    1.4827    0.0000 N.ar    1  UNL1       -0.2368
      6 C           7.8003   -0.5173    0.0000 C.3     1  UNL1        0.0507
      7 C           5.2022   -0.0173    0.0000 C.ar    1  UNL1        0.0651
      8 C           6.0682   -0.5173    0.0000 C.ar    1  UNL1        0.2617
      9 C           5.2022    0.9827    0.0000 C.ar    1  UNL1        0.0813
     10 C           6.9343    0.9827    0.0000 C.ar    1  UNL1        0.0993
     11 C           8.6663   -0.0173    0.0000 C.3     1  UNL1        0.0622
     12 C           4.3083   -0.5520    0.0000 C.ar    1  UNL1       -0.0439
     13 C           4.3083    1.5173    0.0000 C.ar    1  UNL1        0.0060
     14 C           3.4022    1.0035    0.0000 C.ar    1  UNL1        0.1189
     15 C           3.4022   -0.0381    0.0000 C.ar    1  UNL1       -0.0193
     16 H           7.4018   -0.9923    0.0000 H       1  UNL1        0.0516
     17 H           8.1988   -0.9923    0.0000 H       1  UNL1        0.0516
     18 H           7.4712    1.2927    0.0000 H       1  UNL1        0.1030
     19 H           9.0649    0.4576    0.0000 H       1  UNL1        0.0575
     20 H           8.2678    0.4576    0.0000 H       1  UNL1        0.0575
     21 H           4.3154   -1.1720    0.0000 H       1  UNL1        0.0627
     22 H           4.3154    2.1373    0.0000 H       1  UNL1        0.0675
     23 H           2.8665   -0.3502    0.0000 H       1  UNL1        0.0654
     24 H          10.0693   -0.2073    0.0000 H       1  UNL1        0.2095
     25 H           2.0000    1.1989    0.0000 H       1  UNL1        0.2921
@<TRIPOS>BOND
     1     1     8    2
     2     2    11    1
     3     2    24    1
     4     3    14    1
     5     3    25    1
     6     4     6    1
     7     4     8   ar
     8     4    10   ar
     9     5     9   ar
    10     5    10   ar
    11     6    11    1
    12     6    16    1
    13     6    17    1
    14     7     8   ar
    15     7     9   ar
    16     7    12   ar
    17     9    13   ar
    18    10    18    1
    19    11    19    1
    20    11    20    1
    21    12    15   ar
    22    12    21    1
    23    13    14   ar
    24    13    22    1
    25    14    15   ar
    26    15    23    1
