@<TRIPOS>MOLECULE
IMPHY011087
 38 38 0 0 0
SMALL
GASTEIGER

@<TRIPOS>ATOM
      1 O           2.8660    2.2500    0.0000 O.2     1  UNL1       -0.2927
      2 C           2.8660   -0.7500    0.0000 C.3     1  UNL1       -0.0162
      3 C           2.8660    0.2500    0.0000 C.3     1  UNL1       -0.0303
      4 C           2.0000   -1.2500    0.0000 C.3     1  UNL1       -0.0277
      5 C           3.7320    0.7500    0.0000 C.3     1  UNL1        0.0130
      6 C           3.7320   -1.2500    0.0000 C.2     1  UNL1       -0.0801
      7 C           2.0000    0.7500    0.0000 C.3     1  UNL1       -0.0615
      8 C           2.0000   -2.2500    0.0000 C.2     1  UNL1       -0.0805
      9 C           2.8660   -2.7500    0.0000 C.2     1  UNL1       -0.0546
     10 C           3.7320   -2.2500    0.0000 C.2     1  UNL1       -0.0628
     11 C           3.7320    1.7500    0.0000 C.2     1  UNL1        0.1563
     12 C           2.8660   -3.7500    0.0000 C.3     1  UNL1       -0.0400
     13 C           4.5981    2.2500    0.0000 C.2     1  UNL1       -0.0205
     14 C           4.5981    3.2500    0.0000 C.2     1  UNL1       -0.0724
     15 C           5.4641    3.7500    0.0000 C.3     1  UNL1       -0.0437
     16 C           3.7320    3.7500    0.0000 C.3     1  UNL1       -0.0437
     17 H           3.4030   -0.4400    0.0000 H       1  UNL1        0.0349
     18 H           2.8660    0.8700    0.0000 H       1  UNL1        0.0308
     19 H           1.7880   -0.6674    0.0000 H       1  UNL1        0.0313
     20 H           1.3894   -1.3577    0.0000 H       1  UNL1        0.0313
     21 H           3.9441    0.1674    0.0000 H       1  UNL1        0.0348
     22 H           4.3426    0.8577    0.0000 H       1  UNL1        0.0348
     23 H           4.2690   -0.9400    0.0000 H       1  UNL1        0.0575
     24 H           2.3100    1.2869    0.0000 H       1  UNL1        0.0233
     25 H           1.4631    1.0600    0.0000 H       1  UNL1        0.0233
     26 H           1.6900    0.2131    0.0000 H       1  UNL1        0.0233
     27 H           1.4631   -2.5600    0.0000 H       1  UNL1        0.0575
     28 H           4.2690   -2.5600    0.0000 H       1  UNL1        0.0617
     29 H           2.2460   -3.7500    0.0000 H       1  UNL1        0.0277
     30 H           2.8660   -4.3700    0.0000 H       1  UNL1        0.0277
     31 H           3.4860   -3.7500    0.0000 H       1  UNL1        0.0277
     32 H           5.1350    1.9400    0.0000 H       1  UNL1        0.0652
     33 H           5.7741    3.2131    0.0000 H       1  UNL1        0.0274
     34 H           6.0010    4.0600    0.0000 H       1  UNL1        0.0274
     35 H           5.1541    4.2869    0.0000 H       1  UNL1        0.0274
     36 H           4.0420    4.2869    0.0000 H       1  UNL1        0.0274
     37 H           3.1951    4.0600    0.0000 H       1  UNL1        0.0274
     38 H           3.4220    3.2131    0.0000 H       1  UNL1        0.0274
@<TRIPOS>BOND
     1     1    11    2
     2     2     3    1
     3     2     4    1
     4     2     6    1
     5     2    17    1
     6     3     5    1
     7     3     7    1
     8     3    18    1
     9     4     8    1
    10     4    19    1
    11     4    20    1
    12     5    11    1
    13     5    21    1
    14     5    22    1
    15     6    10    2
    16     6    23    1
    17     7    24    1
    18     7    25    1
    19     7    26    1
    20     8     9    2
    21     8    27    1
    22     9    10    1
    23     9    12    1
    24    10    28    1
    25    11    13    1
    26    12    29    1
    27    12    30    1
    28    12    31    1
    29    13    14    2
    30    13    32    1
    31    14    15    1
    32    14    16    1
    33    15    33    1
    34    15    34    1
    35    15    35    1
    36    16    36    1
    37    16    37    1
    38    16    38    1
