@<TRIPOS>MOLECULE
IMPHY006905
 55 56 0 0 0
SMALL
GASTEIGER

@<TRIPOS>ATOM
      1 O           5.2626   -4.4028    0.0000 O.2     1  UNL1       -0.2971
      2 O           7.2340    2.1535    0.0000 O.3     1  UNL1       -0.3907
      3 O           5.2141    3.8623    0.0000 O.3     1  UNL1       -0.3910
      4 C           5.2742   -1.3335    0.0000 C.3     1  UNL1       -0.0253
      5 C           4.3802   -1.8682    0.0000 C.3     1  UNL1       -0.0253
      6 C           6.1803   -1.8474    0.0000 C.3     1  UNL1       -0.0315
      7 C           4.3802   -2.8682    0.0000 C.3     1  UNL1        0.0245
      8 C           5.7641   -0.4618    0.0000 C.3     1  UNL1       -0.0433
      9 C           3.5984   -1.2447    0.0000 C.3     1  UNL1       -0.0456
     10 C           6.1803   -2.8890    0.0000 C.3     1  UNL1        0.0092
     11 C           5.2742   -3.4028    0.0000 C.2     1  UNL1        0.1373
     12 C           4.7642   -0.4733    0.0000 C.3     1  UNL1       -0.0590
     13 C           3.5984   -3.4917    0.0000 C.3     1  UNL1       -0.0222
     14 C           7.0444   -1.3440    0.0000 C.3     1  UNL1       -0.0615
     15 C           2.6235   -1.4672    0.0000 C.3     1  UNL1       -0.0342
     16 C           5.2542    0.3984    0.0000 C.3     1  UNL1       -0.0290
     17 C           2.6235   -3.2691    0.0000 C.2     1  UNL1       -0.0759
     18 C           2.1896   -2.3682    0.0000 C.2     1  UNL1       -0.0850
     19 C           5.7441    1.2702    0.0000 C.2     1  UNL1       -0.0463
     20 C           2.0000   -4.0510    0.0000 C.3     1  UNL1       -0.0438
     21 C           6.7440    1.2817    0.0000 C.3     1  UNL1        0.0654
     22 C           5.2341    2.1304    0.0000 C.2     1  UNL1       -0.0576
     23 C           5.7241    3.0021    0.0000 C.3     1  UNL1        0.0627
     24 H           4.4372   -1.0201    0.0000 H       1  UNL1        0.0313
     25 H           6.1767   -1.2274    0.0000 H       1  UNL1        0.0307
     26 H           4.4372   -3.7163    0.0000 H       1  UNL1        0.0383
     27 H           6.2437   -0.8548    0.0000 H       1  UNL1        0.0274
     28 H           6.2344   -0.0578    0.0000 H       1  UNL1        0.0274
     29 H           4.0832   -0.8581    0.0000 H       1  UNL1        0.0271
     30 H           3.3294   -0.6861    0.0000 H       1  UNL1        0.0271
     31 H           6.3893   -3.4727    0.0000 H       1  UNL1        0.0344
     32 H           6.7911   -2.7829    0.0000 H       1  UNL1        0.0344
     33 H           5.2975   -0.1571    0.0000 H       1  UNL1        0.0235
     34 H           4.4480    0.0600    0.0000 H       1  UNL1        0.0235
     35 H           4.2309   -0.7895    0.0000 H       1  UNL1        0.0235
     36 H           3.3294   -4.0503    0.0000 H       1  UNL1        0.0317
     37 H           4.0832   -3.8782    0.0000 H       1  UNL1        0.0317
     38 H           7.3564   -1.8798    0.0000 H       1  UNL1        0.0233
     39 H           7.5801   -1.0320    0.0000 H       1  UNL1        0.0233
     40 H           6.7323   -0.8083    0.0000 H       1  UNL1        0.0233
     41 H           2.6235   -0.8472    0.0000 H       1  UNL1        0.0307
     42 H           2.0190   -1.3292    0.0000 H       1  UNL1        0.0307
     43 H           4.7746    0.7914    0.0000 H       1  UNL1        0.0311
     44 H           4.7839   -0.0056    0.0000 H       1  UNL1        0.0311
     45 H           1.5696   -2.3682    0.0000 H       1  UNL1        0.0572
     46 H           1.5153   -3.6644    0.0000 H       1  UNL1        0.0274
     47 H           1.6134   -4.5357    0.0000 H       1  UNL1        0.0274
     48 H           2.4847   -4.4375    0.0000 H       1  UNL1        0.0274
     49 H           6.6434    0.6699    0.0000 H       1  UNL1        0.0604
     50 H           7.3291    1.0764    0.0000 H       1  UNL1        0.0604
     51 H           4.6142    2.1232    0.0000 H       1  UNL1        0.0595
     52 H           6.2036    2.6091    0.0000 H       1  UNL1        0.0601
     53 H           6.1944    3.4061    0.0000 H       1  UNL1        0.0601
     54 H           7.8540    2.1606    0.0000 H       1  UNL1        0.2098
     55 H           5.5179    4.4028    0.0000 H       1  UNL1        0.2098
@<TRIPOS>BOND
     1     1    11    2
     2     2    21    1
     3     2    54    1
     4     3    23    1
     5     3    55    1
     6     4     5    1
     7     4     6    1
     8     4     8    1
     9     4    12    1
    10     5     7    1
    11     5     9    1
    12     5    24    1
    13     6    10    1
    14     6    14    1
    15     6    25    1
    16     7    11    1
    17     7    13    1
    18     7    26    1
    19     8    16    1
    20     8    27    1
    21     8    28    1
    22     9    15    1
    23     9    29    1
    24     9    30    1
    25    10    11    1
    26    10    31    1
    27    10    32    1
    28    12    33    1
    29    12    34    1
    30    12    35    1
    31    13    17    1
    32    13    36    1
    33    13    37    1
    34    14    38    1
    35    14    39    1
    36    14    40    1
    37    15    18    1
    38    15    41    1
    39    15    42    1
    40    16    19    1
    41    16    43    1
    42    16    44    1
    43    17    18    2
    44    17    20    1
    45    18    45    1
    46    19    21    1
    47    19    22    2
    48    20    46    1
    49    20    47    1
    50    20    48    1
    51    21    49    1
    52    21    50    1
    53    22    23    1
    54    22    51    1
    55    23    52    1
    56    23    53    1
