@<TRIPOS>MOLECULE
IMPHY009792
 49 51 0 0 0
SMALL
GASTEIGER

@<TRIPOS>ATOM
      1 O           2.0000   -2.4707    0.0000 O.2     1  UNL1       -0.3004
      2 C           4.3838   -1.0527    0.0000 C.3     1  UNL1       -0.0195
      3 C           4.3838   -0.0527    0.0000 C.3     1  UNL1       -0.0031
      4 C           3.4899   -1.5874    0.0000 C.3     1  UNL1        0.0268
      5 C           3.4899    0.4820    0.0000 C.3     1  UNL1       -0.0433
      6 C           5.2498   -1.5527    0.0000 C.3     1  UNL1       -0.0445
      7 C           2.5838   -1.0735    0.0000 C.3     1  UNL1       -0.0409
      8 C           2.5838   -0.0319    0.0000 C.3     1  UNL1       -0.0514
      9 C           5.2498    0.4473    0.0000 C.ar    1  UNL1       -0.0380
     10 C           6.1159   -1.0527    0.0000 C.3     1  UNL1       -0.0271
     11 C           4.3838    0.9473    0.0000 C.3     1  UNL1       -0.0552
     12 C           6.1159   -0.0527    0.0000 C.ar    1  UNL1       -0.0434
     13 C           3.9999   -2.4475    0.0000 C.3     1  UNL1       -0.0528
     14 C           2.9999   -2.4591    0.0000 C.2     1  UNL1        0.1264
     15 C           5.2338    1.4888    0.0000 C.ar    1  UNL1       -0.0575
     16 C           7.0259    0.4542    0.0000 C.ar    1  UNL1       -0.0549
     17 C           7.0339    1.4958    0.0000 C.ar    1  UNL1       -0.0445
     18 C           6.1318    2.0166    0.0000 C.ar    1  UNL1       -0.0580
     19 C           7.9019    1.9924    0.0000 C.3     1  UNL1       -0.0215
     20 C           7.9057    2.9924    0.0000 C.3     1  UNL1       -0.0586
     21 C           8.7660    1.4891    0.0000 C.3     1  UNL1       -0.0586
     22 H           4.3904   -1.9027    0.0000 H       1  UNL1        0.0319
     23 H           3.8945    0.9518    0.0000 H       1  UNL1        0.0274
     24 H           3.0963    0.9610    0.0000 H       1  UNL1        0.0274
     25 H           4.8513   -2.0276    0.0000 H       1  UNL1        0.0272
     26 H           5.6484   -2.0276    0.0000 H       1  UNL1        0.0272
     27 H           1.9730   -0.9674    0.0000 H       1  UNL1        0.0275
     28 H           2.3748   -1.6572    0.0000 H       1  UNL1        0.0275
     29 H           2.3748    0.5518    0.0000 H       1  UNL1        0.0266
     30 H           1.9730   -0.1380    0.0000 H       1  UNL1        0.0266
     31 H           6.3279   -1.6353    0.0000 H       1  UNL1        0.0313
     32 H           6.7265   -0.9450    0.0000 H       1  UNL1        0.0313
     33 H           5.0038    0.9473    0.0000 H       1  UNL1        0.0238
     34 H           4.3838    1.5673    0.0000 H       1  UNL1        0.0238
     35 H           3.7638    0.9473    0.0000 H       1  UNL1        0.0238
     36 H           3.4666   -2.7637    0.0000 H       1  UNL1        0.0239
     37 H           4.3160   -2.9809    0.0000 H       1  UNL1        0.0239
     38 H           4.5332   -2.1313    0.0000 H       1  UNL1        0.0239
     39 H           3.3161   -2.9924    0.0000 H       1  UNL1        0.1032
     40 H           4.6933    1.7926    0.0000 H       1  UNL1        0.0621
     41 H           7.5592    0.1380    0.0000 H       1  UNL1        0.0623
     42 H           6.1294    2.6366    0.0000 H       1  UNL1        0.0620
     43 H           7.8995    1.3724    0.0000 H       1  UNL1        0.0343
     44 H           8.5257    2.9900    0.0000 H       1  UNL1        0.0235
     45 H           7.9081    3.6124    0.0000 H       1  UNL1        0.0235
     46 H           7.2857    2.9948    0.0000 H       1  UNL1        0.0235
     47 H           8.4539    0.9533    0.0000 H       1  UNL1        0.0235
     48 H           9.3017    1.1770    0.0000 H       1  UNL1        0.0235
     49 H           9.0780    2.0248    0.0000 H       1  UNL1        0.0235
@<TRIPOS>BOND
     1     1    14    2
     2     2     3    1
     3     2     4    1
     4     2     6    1
     5     2    22    1
     6     3     5    1
     7     3     9    1
     8     3    11    1
     9     4     7    1
    10     4    13    1
    11     4    14    1
    12     5     8    1
    13     5    23    1
    14     5    24    1
    15     6    10    1
    16     6    25    1
    17     6    26    1
    18     7     8    1
    19     7    27    1
    20     7    28    1
    21     8    29    1
    22     8    30    1
    23     9    12   ar
    24     9    15   ar
    25    10    12    1
    26    10    31    1
    27    10    32    1
    28    11    33    1
    29    11    34    1
    30    11    35    1
    31    12    16   ar
    32    13    36    1
    33    13    37    1
    34    13    38    1
    35    14    39    1
    36    15    18   ar
    37    15    40    1
    38    16    17   ar
    39    16    41    1
    40    17    18   ar
    41    17    19    1
    42    18    42    1
    43    19    20    1
    44    19    21    1
    45    19    43    1
    46    20    44    1
    47    20    45    1
    48    20    46    1
    49    21    47    1
    50    21    48    1
    51    21    49    1
