@<TRIPOS>MOLECULE
IMPHY000597
 62 64 0 0 0
SMALL
GASTEIGER

@<TRIPOS>ATOM
      1 O           8.0901   -1.8017    0.0000 O.3     1  UNL1       -0.4900
      2 O          10.7321   -1.2396    0.0000 O.3     1  UNL1       -0.4944
      3 O           8.0785    1.2675    0.0000 O.2     1  UNL1       -0.2910
      4 O           6.3301    1.2329    0.0000 O.3     1  UNL1       -0.5055
      5 O           4.5981   -1.7671    0.0000 O.3     1  UNL1       -0.5062
      6 O          12.4525    1.7671    0.0000 O.3     1  UNL1       -0.5064
      7 C           8.9962   -0.2463    0.0000 C.3     1  UNL1        0.0847
      8 C           8.9962   -1.2879    0.0000 C.3     1  UNL1        0.1036
      9 C           9.8602    0.2571    0.0000 C.ar    1  UNL1        0.0086
     10 C           8.0901    0.2676    0.0000 C.2     1  UNL1        0.1809
     11 C           7.1962   -0.2671    0.0000 C.ar    1  UNL1        0.1015
     12 C           7.1962   -1.2671    0.0000 C.ar    1  UNL1        0.1380
     13 C          10.7282   -0.2396    0.0000 C.ar    1  UNL1        0.1310
     14 C           6.3301    0.2329    0.0000 C.ar    1  UNL1        0.1378
     15 C          11.5923    0.2638    0.0000 C.ar    1  UNL1        0.0396
     16 C           9.8564    1.2571    0.0000 C.ar    1  UNL1       -0.0508
     17 C           5.4641   -0.2671    0.0000 C.ar    1  UNL1        0.0400
     18 C           6.3301   -1.7671    0.0000 C.ar    1  UNL1        0.0228
     19 C           5.4641   -1.2671    0.0000 C.ar    1  UNL1        0.1273
     20 C          11.5884    1.2637    0.0000 C.ar    1  UNL1        0.1238
     21 C          12.4602   -0.2329    0.0000 C.3     1  UNL1       -0.0023
     22 C          10.7205    1.7604    0.0000 C.ar    1  UNL1       -0.0194
     23 C           4.5981    0.2329    0.0000 C.3     1  UNL1       -0.0023
     24 C          13.3243    0.2704    0.0000 C.2     1  UNL1       -0.0807
     25 C           3.7320   -0.2671    0.0000 C.2     1  UNL1       -0.0807
     26 C          11.6000   -1.7362    0.0000 C.3     1  UNL1        0.0788
     27 C          14.1923   -0.2262    0.0000 C.2     1  UNL1       -0.0793
     28 C           2.8660    0.2329    0.0000 C.2     1  UNL1       -0.0793
     29 C          15.0564    0.2771    0.0000 C.3     1  UNL1       -0.0440
     30 C          14.1961   -1.2262    0.0000 C.3     1  UNL1       -0.0440
     31 C           2.0000   -0.2671    0.0000 C.3     1  UNL1       -0.0440
     32 C           2.8660    1.2329    0.0000 C.3     1  UNL1       -0.0440
     33 H           8.9913    0.6037    0.0000 H       1  UNL1        0.0464
     34 H           9.2052   -1.8716    0.0000 H       1  UNL1        0.0707
     35 H           9.6070   -1.1818    0.0000 H       1  UNL1        0.0707
     36 H           9.3183    1.5650    0.0000 H       1  UNL1        0.0623
     37 H           6.3301   -2.3871    0.0000 H       1  UNL1        0.0691
     38 H          12.0635   -0.7094    0.0000 H       1  UNL1        0.0358
     39 H          12.8606   -0.7063    0.0000 H       1  UNL1        0.0358
     40 H          10.7181    2.3804    0.0000 H       1  UNL1        0.0654
     41 H           4.9966    0.7079    0.0000 H       1  UNL1        0.0358
     42 H           4.1996    0.7079    0.0000 H       1  UNL1        0.0358
     43 H          13.3219    0.8904    0.0000 H       1  UNL1        0.0575
     44 H           3.7320   -0.8871    0.0000 H       1  UNL1        0.0575
     45 H           5.7932    1.5429    0.0000 H       1  UNL1        0.2922
     46 H          11.2921   -2.2744    0.0000 H       1  UNL1        0.0660
     47 H          12.1381   -2.0442    0.0000 H       1  UNL1        0.0660
     48 H          11.9079   -1.1981    0.0000 H       1  UNL1        0.0660
     49 H           4.5981   -2.3871    0.0000 H       1  UNL1        0.2921
     50 H          12.4501    2.3871    0.0000 H       1  UNL1        0.2921
     51 H          13.5761   -1.2286    0.0000 H       1  UNL1        0.0274
     52 H          14.1985   -1.8462    0.0000 H       1  UNL1        0.0274
     53 H          14.8161   -1.2238    0.0000 H       1  UNL1        0.0274
     54 H          15.3684   -0.2586    0.0000 H       1  UNL1        0.0274
     55 H          15.5921    0.5892    0.0000 H       1  UNL1        0.0274
     56 H          14.7443    0.8128    0.0000 H       1  UNL1        0.0274
     57 H           3.4860    1.2329    0.0000 H       1  UNL1        0.0274
     58 H           2.8660    1.8529    0.0000 H       1  UNL1        0.0274
     59 H           2.2460    1.2329    0.0000 H       1  UNL1        0.0274
     60 H           1.6900    0.2699    0.0000 H       1  UNL1        0.0274
     61 H           1.4631   -0.5771    0.0000 H       1  UNL1        0.0274
     62 H           2.3100   -0.8040    0.0000 H       1  UNL1        0.0274
@<TRIPOS>BOND
     1     1     8    1
     2     1    12    1
     3     2    13    1
     4     2    26    1
     5     3    10    2
     6     4    14    1
     7     4    45    1
     8     5    19    1
     9     5    49    1
    10     6    20    1
    11     6    50    1
    12     7     8    1
    13     7     9    1
    14     7    10    1
    15     7    33    1
    16     8    34    1
    17     8    35    1
    18     9    13   ar
    19     9    16   ar
    20    10    11    1
    21    11    12   ar
    22    11    14   ar
    23    12    18   ar
    24    13    15   ar
    25    14    17   ar
    26    15    20   ar
    27    15    21    1
    28    16    22   ar
    29    16    36    1
    30    17    19   ar
    31    17    23    1
    32    18    19   ar
    33    18    37    1
    34    20    22   ar
    35    21    24    1
    36    21    38    1
    37    21    39    1
    38    22    40    1
    39    23    25    1
    40    23    41    1
    41    23    42    1
    42    24    27    2
    43    24    43    1
    44    25    28    2
    45    25    44    1
    46    26    46    1
    47    26    47    1
    48    26    48    1
    49    27    29    1
    50    27    30    1
    51    28    31    1
    52    28    32    1
    53    29    54    1
    54    29    55    1
    55    29    56    1
    56    30    51    1
    57    30    52    1
    58    30    53    1
    59    31    60    1
    60    31    61    1
    61    31    62    1
    62    32    57    1
    63    32    58    1
    64    32    59    1
