@<TRIPOS>MOLECULE
IMPHY010931
 65 69 0 0 0
SMALL
GASTEIGER

@<TRIPOS>ATOM
      1 O           7.2544   -2.7050    0.0000 O.3     1  UNL1       -0.4574
      2 O           4.6423    0.8234    0.0000 O.3     1  UNL1       -0.3914
      3 O           8.8124    1.3052    0.0000 O.3     1  UNL1       -0.4601
      4 O           3.7817    0.3265    0.0000 O.3     1  UNL1       -0.3834
      5 O           2.0000   -0.6839    0.0000 O.2     1  UNL1       -0.2899
      6 O           8.9759   -2.7378    0.0000 O.2     1  UNL1       -0.2456
      7 O           6.1316    3.2835    0.0000 O.3     1  UNL1       -0.3946
      8 O           9.9392    2.6857    0.0000 O.2     1  UNL1       -0.2508
      9 C           5.5301   -0.7081    0.0000 C.3     1  UNL1        0.0062
     10 C           6.3961   -1.2081    0.0000 C.3     1  UNL1        0.0328
     11 C           4.6641   -1.2081    0.0000 C.3     1  UNL1        0.0138
     12 C           4.6641   -2.2081    0.0000 C.3     1  UNL1       -0.0079
     13 C           6.3961   -2.2081    0.0000 C.3     1  UNL1        0.1133
     14 C           7.3142    0.3404    0.0000 C.3     1  UNL1        0.0297
     15 C           5.5141    0.3334    0.0000 C.3     1  UNL1        0.0605
     16 C           7.3062   -0.7012    0.0000 C.2     1  UNL1       -0.0436
     17 C           5.5301   -2.7081    0.0000 C.3     1  UNL1       -0.0077
     18 C           6.4121    0.8612    0.0000 C.3     1  UNL1       -0.0140
     19 C           3.7702   -0.6734    0.0000 C.3     1  UNL1        0.1232
     20 C           6.3961   -0.2081    0.0000 C.3     1  UNL1       -0.0521
     21 C           7.8175    1.2045    0.0000 C.3     1  UNL1        0.1175
     22 C           4.6641   -0.2081    0.0000 C.3     1  UNL1       -0.0559
     23 C           3.7702   -2.7427    0.0000 C.2     1  UNL1       -0.0654
     24 C           8.3142    0.3365    0.0000 C.3     1  UNL1       -0.0523
     25 C           8.1455   -1.2294    0.0000 C.2     1  UNL1        0.0230
     26 C           7.4143    2.1196    0.0000 C.3     1  UNL1        0.0301
     27 C           2.8641   -1.1872    0.0000 C.2     1  UNL1        0.1848
     28 C           2.8641   -2.2289    0.0000 C.2     1  UNL1       -0.0173
     29 C           8.1198   -2.2208    0.0000 C.2     1  UNL1        0.3322
     30 C           8.1600    2.7858    0.0000 C.3     1  UNL1        0.0532
     31 C           3.7817   -3.7426    0.0000 C.3     1  UNL1       -0.0431
     32 C           6.4370    2.3313    0.0000 C.3     1  UNL1        0.0509
     33 C           9.0241    2.2825    0.0000 C.2     1  UNL1        0.3078
     34 H           4.7908   -0.2887    0.0000 H       1  UNL1        0.0342
     35 H           4.6706   -3.0580    0.0000 H       1  UNL1        0.0353
     36 H           6.3956   -3.0581    0.0000 H       1  UNL1        0.0743
     37 H           5.5081    0.9534    0.0000 H       1  UNL1        0.0597
     38 H           5.1316   -3.1830    0.0000 H       1  UNL1        0.0307
     39 H           5.9286   -3.1830    0.0000 H       1  UNL1        0.0307
     40 H           6.8094    1.3372    0.0000 H       1  UNL1        0.0300
     41 H           6.0111    1.3341    0.0000 H       1  UNL1        0.0300
     42 H           3.2362   -0.3582    0.0000 H       1  UNL1        0.0682
     43 H           7.0162   -0.2081    0.0000 H       1  UNL1        0.0239
     44 H           6.3961    0.4119    0.0000 H       1  UNL1        0.0239
     45 H           5.7762   -0.2081    0.0000 H       1  UNL1        0.0239
     46 H           6.9689    1.2522    0.0000 H       1  UNL1        0.0746
     47 H           5.2841   -0.2081    0.0000 H       1  UNL1        0.0236
     48 H           4.6641    0.4119    0.0000 H       1  UNL1        0.0236
     49 H           4.0441   -0.2081    0.0000 H       1  UNL1        0.0236
     50 H           8.3118   -0.2835    0.0000 H       1  UNL1        0.0239
     51 H           8.9342    0.3341    0.0000 H       1  UNL1        0.0239
     52 H           8.3166    0.9565    0.0000 H       1  UNL1        0.0239
     53 H           8.6920   -0.9368    0.0000 H       1  UNL1        0.0689
     54 H           7.0223    1.6393    0.0000 H       1  UNL1        0.0364
     55 H           2.3284   -2.5409    0.0000 H       1  UNL1        0.0653
     56 H           4.6352    1.4434    0.0000 H       1  UNL1        0.2098
     57 H           8.5264    3.2860    0.0000 H       1  UNL1        0.0382
     58 H           7.7009    3.2025    0.0000 H       1  UNL1        0.0382
     59 H           3.1618   -3.7498    0.0000 H       1  UNL1        0.0275
     60 H           3.7889   -4.3626    0.0000 H       1  UNL1        0.0275
     61 H           4.4017   -3.7355    0.0000 H       1  UNL1        0.0275
     62 H           3.2484    0.6427    0.0000 H       1  UNL1        0.2104
     63 H           5.8227    2.2474    0.0000 H       1  UNL1        0.0561
     64 H           6.4129    1.7117    0.0000 H       1  UNL1        0.0561
     65 H           6.5482    3.7426    0.0000 H       1  UNL1        0.2094
@<TRIPOS>BOND
     1     1    13    1
     2     1    29    1
     3    15     2    1
     4     2    56    1
     5     3    21    1
     6     3    33    1
     7    19     4    1
     8     4    62    1
     9     5    27    2
    10     6    29    2
    11     7    32    1
    12     7    65    1
    13     8    33    2
    14     9    10    1
    15     9    11    1
    16     9    15    1
    17     9    34    1
    18    10    13    1
    19    10    16    1
    20    10    20    1
    21    11    12    1
    22    11    19    1
    23    11    22    1
    24    12    17    1
    25    12    23    1
    26    12    35    1
    27    13    17    1
    28    13    36    1
    29    14    16    1
    30    14    18    1
    31    14    21    1
    32    14    24    1
    33    15    18    1
    34    15    37    1
    35    16    25    2
    36    17    38    1
    37    17    39    1
    38    18    40    1
    39    18    41    1
    40    19    27    1
    41    19    42    1
    42    20    43    1
    43    20    44    1
    44    20    45    1
    45    21    26    1
    46    21    46    1
    47    22    47    1
    48    22    48    1
    49    22    49    1
    50    23    28    2
    51    23    31    1
    52    24    50    1
    53    24    51    1
    54    24    52    1
    55    25    29    1
    56    25    53    1
    57    26    30    1
    58    26    32    1
    59    26    54    1
    60    27    28    1
    61    28    55    1
    62    30    33    1
    63    30    57    1
    64    30    58    1
    65    31    59    1
    66    31    60    1
    67    31    61    1
    68    32    63    1
    69    32    64    1
