@<TRIPOS>MOLECULE
IMPHY001775
 27 28 0 0 0
SMALL
GASTEIGER

@<TRIPOS>ATOM
      1 N           5.5443   -1.7944    0.0000 N.ar    1  UNL1       -0.3604
      2 N           7.1441    1.9223    0.0000 N.3     1  UNL1       -0.3297
      3 C           5.5443   -0.1850    0.0000 C.ar    1  UNL1       -0.0212
      4 C           4.5981   -0.4897    0.0000 C.ar    1  UNL1        0.0031
      5 C           4.5981   -1.4897    0.0000 C.ar    1  UNL1        0.0467
      6 C           5.8550    0.7656    0.0000 C.3     1  UNL1       -0.0133
      7 C           6.1279   -0.9897    0.0000 C.ar    1  UNL1        0.0059
      8 C           3.7320    0.0103    0.0000 C.ar    1  UNL1       -0.0494
      9 C           6.8335    0.9718    0.0000 C.3     1  UNL1       -0.0029
     10 C           2.8660   -0.4897    0.0000 C.ar    1  UNL1       -0.0498
     11 C           3.7320   -1.9897    0.0000 C.ar    1  UNL1       -0.0375
     12 C           2.8660   -1.4897    0.0000 C.ar    1  UNL1       -0.0569
     13 C           2.0000    0.0103    0.0000 C.3     1  UNL1       -0.0397
     14 H           5.8344    1.3852    0.0000 H       1  UNL1        0.0326
     15 H           5.2411    0.8529    0.0000 H       1  UNL1        0.0326
     16 H           6.7479   -0.9897    0.0000 H       1  UNL1        0.0810
     17 H           5.7369   -2.3838    0.0000 H       1  UNL1        0.1653
     18 H           3.7320    0.6303    0.0000 H       1  UNL1        0.0627
     19 H           6.8540    0.3521    0.0000 H       1  UNL1        0.0425
     20 H           7.4473    0.8844    0.0000 H       1  UNL1        0.0425
     21 H           3.7320   -2.6097    0.0000 H       1  UNL1        0.0638
     22 H           2.3291   -1.7997    0.0000 H       1  UNL1        0.0621
     23 H           2.3100    0.5472    0.0000 H       1  UNL1        0.0278
     24 H           1.4631    0.3203    0.0000 H       1  UNL1        0.0278
     25 H           1.6900   -0.5266    0.0000 H       1  UNL1        0.0278
     26 H           7.7508    2.0502    0.0000 H       1  UNL1        0.1182
     27 H           6.7301    2.3838    0.0000 H       1  UNL1        0.1182
@<TRIPOS>BOND
     1     1     5   ar
     2     1     7   ar
     3     1    17    1
     4     2     9    1
     5     2    26    1
     6     2    27    1
     7     3     4   ar
     8     3     6    1
     9     3     7   ar
    10     4     5   ar
    11     4     8   ar
    12     5    11   ar
    13     6     9    1
    14     6    14    1
    15     6    15    1
    16     7    16    1
    17     8    10   ar
    18     8    18    1
    19     9    19    1
    20     9    20    1
    21    10    12   ar
    22    10    13    1
    23    11    12   ar
    24    11    21    1
    25    12    22    1
    26    13    23    1
    27    13    24    1
    28    13    25    1
