@<TRIPOS>MOLECULE
IMPHY013898
 50 54 0 0 0
SMALL
GASTEIGER

@<TRIPOS>ATOM
      1 O           2.4608   -0.2597    0.0000 O.3     1  UNL1       -0.3849
      2 O           2.1722    2.1044    0.0000 O.3     1  UNL1       -0.4522
      3 O           2.9992    3.5627    0.0000 O.3     1  UNL1       -0.4526
      4 O           7.7510   -0.5144    0.0000 O.3     1  UNL1       -0.4914
      5 O           7.7510   -2.5627    0.0000 O.3     1  UNL1       -0.4914
      6 N           3.3548   -1.0385    0.0000 N.3     1  UNL1       -0.2928
      7 C           4.2208   -0.5385    0.0000 C.3     1  UNL1        0.0816
      8 C           3.4118    0.0493    0.0000 C.3     1  UNL1        0.1066
      9 C           5.0298    0.0493    0.0000 C.3     1  UNL1       -0.0018
     10 C           5.0868   -1.0385    0.0000 C.ar    1  UNL1       -0.0172
     11 C           3.7208    1.0003    0.0000 C.ar    1  UNL1        0.0317
     12 C           4.7208    1.0003    0.0000 C.ar    1  UNL1       -0.0358
     13 C           3.3548   -2.0385    0.0000 C.3     1  UNL1        0.0035
     14 C           5.0868   -2.0385    0.0000 C.ar    1  UNL1       -0.0374
     15 C           4.2208   -2.5385    0.0000 C.3     1  UNL1       -0.0144
     16 C           3.1862    1.8943    0.0000 C.ar    1  UNL1        0.1722
     17 C           2.4888   -1.5385    0.0000 C.3     1  UNL1       -0.0118
     18 C           5.9808   -0.5039    0.0000 C.ar    1  UNL1       -0.0110
     19 C           5.2555    1.8943    0.0000 C.ar    1  UNL1       -0.0545
     20 C           5.9808   -2.5732    0.0000 C.ar    1  UNL1       -0.0128
     21 C           3.7000    2.8003    0.0000 C.ar    1  UNL1        0.1666
     22 C           4.7416    2.8003    0.0000 C.ar    1  UNL1       -0.0159
     23 C           6.8869   -1.0177    0.0000 C.ar    1  UNL1        0.1618
     24 C           6.8869   -2.0593    0.0000 C.ar    1  UNL1        0.1618
     25 C           2.0570    3.1334    0.0000 C.3     1  UNL1        0.2332
     26 C           8.6189   -1.0110    0.0000 C.3     1  UNL1        0.0790
     27 C           7.7471   -3.5627    0.0000 C.3     1  UNL1        0.0790
     28 H           2.9734    0.4877    0.0000 H       1  UNL1        0.0667
     29 H           5.3398   -0.4877    0.0000 H       1  UNL1        0.0335
     30 H           5.5962    0.3014    0.0000 H       1  UNL1        0.0335
     31 H           2.7442   -1.9308    0.0000 H       1  UNL1        0.0430
     32 H           3.1428   -2.6211    0.0000 H       1  UNL1        0.0430
     33 H           3.8223   -3.0135    0.0000 H       1  UNL1        0.0326
     34 H           4.6194   -3.0135    0.0000 H       1  UNL1        0.0326
     35 H           2.1788   -1.0016    0.0000 H       1  UNL1        0.0391
     36 H           1.9518   -1.8485    0.0000 H       1  UNL1        0.0391
     37 H           2.7988   -2.0754    0.0000 H       1  UNL1        0.0391
     38 H           5.9736    0.1161    0.0000 H       1  UNL1        0.0659
     39 H           5.8754    1.8871    0.0000 H       1  UNL1        0.0622
     40 H           2.0000    0.1551    0.0000 H       1  UNL1        0.2103
     41 H           5.9736   -3.1931    0.0000 H       1  UNL1        0.0658
     42 H           5.0537    3.3361    0.0000 H       1  UNL1        0.0655
     43 H           1.8607    3.7215    0.0000 H       1  UNL1        0.1166
     44 H           1.4515    3.0000    0.0000 H       1  UNL1        0.1166
     45 H           8.3110   -1.5492    0.0000 H       1  UNL1        0.0660
     46 H           9.1570   -1.3190    0.0000 H       1  UNL1        0.0660
     47 H           8.9268   -0.4729    0.0000 H       1  UNL1        0.0660
     48 H           7.1271   -3.5603    0.0000 H       1  UNL1        0.0660
     49 H           7.7447   -4.1826    0.0000 H       1  UNL1        0.0660
     50 H           8.3671   -3.5650    0.0000 H       1  UNL1        0.0660
@<TRIPOS>BOND
     1     8     1    1
     2     1    40    1
     3     2    16    1
     4     2    25    1
     5     3    21    1
     6     3    25    1
     7     4    23    1
     8     4    26    1
     9     5    24    1
    10     5    27    1
    11     6     7    1
    12     6    13    1
    13     6    17    1
    14     7     8    1
    15     7     9    1
    16     7    10    1
    17     8    11    1
    18     8    28    1
    19     9    12    1
    20     9    29    1
    21     9    30    1
    22    10    14   ar
    23    10    18   ar
    24    11    12   ar
    25    11    16   ar
    26    12    19   ar
    27    13    15    1
    28    13    31    1
    29    13    32    1
    30    14    15    1
    31    14    20   ar
    32    15    33    1
    33    15    34    1
    34    16    21   ar
    35    17    35    1
    36    17    36    1
    37    17    37    1
    38    18    23   ar
    39    18    38    1
    40    19    22   ar
    41    19    39    1
    42    20    24   ar
    43    20    41    1
    44    21    22   ar
    45    22    42    1
    46    23    24   ar
    47    25    43    1
    48    25    44    1
    49    26    45    1
    50    26    46    1
    51    26    47    1
    52    27    48    1
    53    27    49    1
    54    27    50    1
