@<TRIPOS>MOLECULE
IMPHY016483
 24 23 0 0 0
SMALL
GASTEIGER

@<TRIPOS>ATOM
      1 O           2.5369    0.7500    0.0000 O.3     1  UNL1       -0.4806
      2 O           3.4030   -0.7500    0.0000 O.2     1  UNL1       -0.2510
      3 C           6.0010    0.7500    0.0000 C.3     1  UNL1       -0.0523
      4 C           6.8671    0.2500    0.0000 C.3     1  UNL1       -0.0496
      5 C           5.1350    0.2500    0.0000 C.3     1  UNL1       -0.0430
      6 C           7.7331    0.7500    0.0000 C.3     1  UNL1       -0.0350
      7 C           4.2690    0.7500    0.0000 C.3     1  UNL1        0.0448
      8 C           8.5991    0.2500    0.0000 C.2     1  UNL1       -0.0911
      9 C           3.4030    0.2500    0.0000 C.2     1  UNL1        0.3047
     10 C           9.4651    0.7500    0.0000 C.2     1  UNL1       -0.1026
     11 H           6.3996    1.2250    0.0000 H       1  UNL1        0.0265
     12 H           5.6025    1.2250    0.0000 H       1  UNL1        0.0265
     13 H           4.7365   -0.2249    0.0000 H       1  UNL1        0.0270
     14 H           5.5335   -0.2249    0.0000 H       1  UNL1        0.0270
     15 H           6.4685   -0.2249    0.0000 H       1  UNL1        0.0268
     16 H           7.2656   -0.2249    0.0000 H       1  UNL1        0.0268
     17 H           8.1316    1.2250    0.0000 H       1  UNL1        0.0307
     18 H           7.3346    1.2250    0.0000 H       1  UNL1        0.0307
     19 H           4.6675    1.2250    0.0000 H       1  UNL1        0.0377
     20 H           3.8705    1.2250    0.0000 H       1  UNL1        0.0377
     21 H           8.5991   -0.3700    0.0000 H       1  UNL1        0.0566
     22 H          10.0021    0.4400    0.0000 H       1  UNL1        0.0532
     23 H           9.4651    1.3700    0.0000 H       1  UNL1        0.0532
     24 H           2.0000    0.4400    0.0000 H       1  UNL1        0.2951
@<TRIPOS>BOND
     1     1     9    1
     2     1    24    1
     3     2     9    2
     4     3     4    1
     5     3     5    1
     6     3    11    1
     7     3    12    1
     8     4     6    1
     9     4    15    1
    10     4    16    1
    11     5     7    1
    12     5    13    1
    13     5    14    1
    14     6     8    1
    15     6    17    1
    16     6    18    1
    17     7     9    1
    18     7    19    1
    19     7    20    1
    20     8    10    2
    21     8    21    1
    22    10    22    1
    23    10    23    1
