@<TRIPOS>MOLECULE
IMPHY010070
 39 40 0 0 0
SMALL
GASTEIGER

@<TRIPOS>ATOM
      1 O           4.2690   -0.5000    0.0000 O.3     1  UNL1       -0.3312
      2 O           2.5369   -2.5000    0.0000 O.3     1  UNL1       -0.3865
      3 O           4.2690   -3.5000    0.0000 O.3     1  UNL1       -0.3864
      4 O           6.0010   -0.5000    0.0000 O.3     1  UNL1       -0.4287
      5 O           6.0010   -2.5000    0.0000 O.3     1  UNL1       -0.3829
      6 O           2.5369    0.5000    0.0000 O.3     1  UNL1       -0.3924
      7 O           5.1350    1.0000    0.0000 O.2     1  UNL1       -0.2449
      8 O           7.7331    3.5000    0.0000 O.3     1  UNL1       -0.5032
      9 O           9.4651    0.5000    0.0000 O.3     1  UNL1       -0.5032
     10 O           9.4651    2.5000    0.0000 O.3     1  UNL1       -0.5009
     11 C           3.4030   -2.0000    0.0000 C.3     1  UNL1        0.1120
     12 C           4.2690   -2.5000    0.0000 C.3     1  UNL1        0.1152
     13 C           3.4030   -1.0000    0.0000 C.3     1  UNL1        0.1140
     14 C           5.1350   -2.0000    0.0000 C.3     1  UNL1        0.1455
     15 C           5.1350   -1.0000    0.0000 C.3     1  UNL1        0.2341
     16 C           2.5369   -0.5000    0.0000 C.3     1  UNL1        0.0731
     17 C           6.0010    0.5000    0.0000 C.2     1  UNL1        0.3417
     18 C           6.8671    1.0000    0.0000 C.ar    1  UNL1        0.0662
     19 C           7.7331    0.5000    0.0000 C.ar    1  UNL1       -0.0023
     20 C           6.8671    2.0000    0.0000 C.ar    1  UNL1       -0.0023
     21 C           7.7331    2.5000    0.0000 C.ar    1  UNL1        0.1628
     22 C           8.5991    1.0000    0.0000 C.ar    1  UNL1        0.1628
     23 C           8.5991    2.0000    0.0000 C.ar    1  UNL1        0.2006
     24 H           3.4030   -2.6200    0.0000 H       1  UNL1        0.0647
     25 H           4.8059   -2.8100    0.0000 H       1  UNL1        0.0648
     26 H           3.4030   -0.3800    0.0000 H       1  UNL1        0.0647
     27 H           5.6720   -1.6900    0.0000 H       1  UNL1        0.0683
     28 H           5.1350   -0.3800    0.0000 H       1  UNL1        0.1085
     29 H           1.9264   -0.3923    0.0000 H       1  UNL1        0.0584
     30 H           2.3249   -1.0826    0.0000 H       1  UNL1        0.0584
     31 H           2.0000   -2.1900    0.0000 H       1  UNL1        0.2100
     32 H           3.7320   -3.8100    0.0000 H       1  UNL1        0.2100
     33 H           6.5380   -2.1900    0.0000 H       1  UNL1        0.2102
     34 H           2.0000    0.8100    0.0000 H       1  UNL1        0.2095
     35 H           7.7331   -0.1200    0.0000 H       1  UNL1        0.0663
     36 H           6.3301    2.3100    0.0000 H       1  UNL1        0.0663
     37 H           7.1962    3.8100    0.0000 H       1  UNL1        0.2923
     38 H           9.4651   -0.1200    0.0000 H       1  UNL1        0.2923
     39 H           9.4651    3.1200    0.0000 H       1  UNL1        0.2924
@<TRIPOS>BOND
     1     1    13    1
     2     1    15    1
     3    11     2    1
     4     2    31    1
     5    12     3    1
     6     3    32    1
     7    15     4    1
     8     4    17    1
     9    14     5    1
    10     5    33    1
    11     6    16    1
    12     6    34    1
    13     7    17    2
    14     8    21    1
    15     8    37    1
    16     9    22    1
    17     9    38    1
    18    10    23    1
    19    10    39    1
    20    11    12    1
    21    11    13    1
    22    11    24    1
    23    12    14    1
    24    12    25    1
    25    13    16    1
    26    13    26    1
    27    14    15    1
    28    14    27    1
    29    15    28    1
    30    16    29    1
    31    16    30    1
    32    17    18    1
    33    18    19   ar
    34    18    20   ar
    35    19    22   ar
    36    19    35    1
    37    20    21   ar
    38    20    36    1
    39    21    23   ar
    40    22    23   ar
