@<TRIPOS>MOLECULE
IMPHY007767
 43 48 0 0 0
SMALL
GASTEIGER

@<TRIPOS>ATOM
      1 O           6.2970    3.5673    0.0000 O.3     1  UNL1       -0.4518
      2 O           4.8517    4.4167    0.0000 O.3     1  UNL1       -0.4525
      3 O           2.8718    1.3337    0.0000 O.3     1  UNL1       -0.4944
      4 O           7.2979   -3.5278    0.0000 O.3     1  UNL1       -0.4526
      5 O           5.7924   -4.4125    0.0000 O.3     1  UNL1       -0.4526
      6 N           6.3740    0.3368    0.0000 N.ar    1  UNL1       -0.1986
      7 C           5.5080   -0.1632    0.0000 C.ar    1  UNL1        0.2233
      8 C           4.6419    0.3368    0.0000 C.ar    1  UNL1        0.0583
      9 C           4.6419    1.3368    0.0000 C.ar    1  UNL1        0.0466
     10 C           5.5080    1.8368    0.0000 C.ar    1  UNL1        0.0952
     11 C           5.5240   -1.2047    0.0000 C.ar    1  UNL1        0.0576
     12 C           4.6260   -1.7324    0.0000 C.ar    1  UNL1       -0.0079
     13 C           6.3740    1.3368    0.0000 C.ar    1  UNL1        0.1830
     14 C           5.5240    2.8783    0.0000 C.ar    1  UNL1        0.1798
     15 C           3.7319   -0.1700    0.0000 C.ar    1  UNL1       -0.0470
     16 C           3.7319    1.8437    0.0000 C.ar    1  UNL1        0.1324
     17 C           3.7239   -1.2116    0.0000 C.ar    1  UNL1       -0.0529
     18 C           6.4760   -1.7253    0.0000 C.ar    1  UNL1       -0.0021
     19 C           4.6260    3.4061    0.0000 C.ar    1  UNL1        0.1705
     20 C           4.6176   -2.8174    0.0000 C.ar    1  UNL1       -0.0082
     21 C           3.7239    2.8853    0.0000 C.ar    1  UNL1        0.0262
     22 C           6.4927   -2.8102    0.0000 C.ar    1  UNL1        0.1670
     23 C           7.2400   -0.1632    0.0000 C.3     1  UNL1        0.1410
     24 C           5.5572   -3.3599    0.0000 C.ar    1  UNL1        0.1668
     25 C           5.8824    4.5161    0.0000 C.3     1  UNL1        0.2333
     26 C           6.8660   -4.5161    0.0000 C.3     1  UNL1        0.2332
     27 C           2.0000    1.8236    0.0000 C.3     1  UNL1        0.0788
     28 H           6.9109    1.6468    0.0000 H       1  UNL1        0.1384
     29 H           3.1986    0.1462    0.0000 H       1  UNL1        0.0626
     30 H           3.1858   -1.5195    0.0000 H       1  UNL1        0.0624
     31 H           7.0068   -1.4050    0.0000 H       1  UNL1        0.0663
     32 H           4.0795   -3.1253    0.0000 H       1  UNL1        0.0661
     33 H           3.1858    3.1932    0.0000 H       1  UNL1        0.0692
     34 H           6.9300   -0.7001    0.0000 H       1  UNL1        0.0993
     35 H           7.7770   -0.4732    0.0000 H       1  UNL1        0.0993
     36 H           7.5500    0.3738    0.0000 H       1  UNL1        0.0993
     37 H           6.4734    4.7033    0.0000 H       1  UNL1        0.1166
     38 H           5.7583    5.1235    0.0000 H       1  UNL1        0.1166
     39 H           6.7419   -5.1235    0.0000 H       1  UNL1        0.1166
     40 H           7.4570   -4.7033    0.0000 H       1  UNL1        0.1166
     41 H           2.3038    2.3641    0.0000 H       1  UNL1        0.0660
     42 H           1.4595    2.1274    0.0000 H       1  UNL1        0.0660
     43 H           1.6962    1.2832    0.0000 H       1  UNL1        0.0660
@<TRIPOS>UNITY_ATOM_ATTR
6 1
charge 1
@<TRIPOS>BOND
     1     1    14    1
     2     1    25    1
     3     2    19    1
     4     2    25    1
     5     3    16    1
     6     3    27    1
     7     4    22    1
     8     4    26    1
     9     5    24    1
    10     5    26    1
    11     6     7   ar
    12     6    13   ar
    13     6    23    1
    14     7     8   ar
    15     7    11   ar
    16     8     9   ar
    17     8    15   ar
    18     9    10   ar
    19     9    16   ar
    20    10    13   ar
    21    10    14   ar
    22    11    12   ar
    23    11    18   ar
    24    12    17   ar
    25    12    20   ar
    26    13    28    1
    27    14    19   ar
    28    15    17   ar
    29    15    29    1
    30    16    21   ar
    31    17    30    1
    32    18    22   ar
    33    18    31    1
    34    19    21   ar
    35    20    24   ar
    36    20    32    1
    37    21    33    1
    38    22    24   ar
    39    23    34    1
    40    23    35    1
    41    23    36    1
    42    25    37    1
    43    25    38    1
    44    26    39    1
    45    26    40    1
    46    27    41    1
    47    27    42    1
    48    27    43    1
