@<TRIPOS>MOLECULE
IMPHY001579
 41 43 0 0 0
SMALL
GASTEIGER

@<TRIPOS>ATOM
      1 O           2.3337   -0.1296    0.0000 O.3     1  UNL1       -0.4279
      2 O           4.7296   -2.1296    0.0000 O.3     1  UNL1       -0.3869
      3 O           2.6067    1.6256    0.0000 O.3     1  UNL1       -0.3543
      4 O           2.6067   -1.8849    0.0000 O.2     1  UNL1       -0.2451
      5 C           5.5956    0.3704    0.0000 C.3     1  UNL1       -0.0239
      6 C           4.7296    0.8704    0.0000 C.3     1  UNL1       -0.0010
      7 C           6.5056    0.8772    0.0000 C.3     1  UNL1       -0.0312
      8 C           4.7135    1.9119    0.0000 C.3     1  UNL1       -0.0434
      9 C           5.5956   -0.6296    0.0000 C.3     1  UNL1       -0.0183
     10 C           6.5136    1.9188    0.0000 C.3     1  UNL1       -0.0476
     11 C           3.8636    0.3704    0.0000 C.2     1  UNL1        0.0163
     12 C           5.6116    2.4396    0.0000 C.3     1  UNL1       -0.0518
     13 C           4.7296   -1.1296    0.0000 C.3     1  UNL1        0.0873
     14 C           3.8636    1.3704    0.0000 C.3     1  UNL1       -0.0553
     15 C           3.8636   -0.6296    0.0000 C.2     1  UNL1        0.0704
     16 C           7.5055    0.8657    0.0000 C.3     1  UNL1       -0.0595
     17 C           6.9956    0.0055    0.0000 C.3     1  UNL1       -0.0595
     18 C           2.9173    0.6751    0.0000 C.3     1  UNL1        0.2268
     19 C           2.9173   -0.9344    0.0000 C.2     1  UNL1        0.3402
     20 H           6.3284   -0.0603    0.0000 H       1  UNL1        0.0315
     21 H           4.4955    2.4923    0.0000 H       1  UNL1        0.0274
     22 H           4.1044    1.7964    0.0000 H       1  UNL1        0.0274
     23 H           5.8077   -1.2122    0.0000 H       1  UNL1        0.0297
     24 H           6.2062   -0.5220    0.0000 H       1  UNL1        0.0297
     25 H           7.1237    1.8080    0.0000 H       1  UNL1        0.0271
     26 H           6.7272    2.5009    0.0000 H       1  UNL1        0.0271
     27 H           6.0089    2.9156    0.0000 H       1  UNL1        0.0266
     28 H           5.2106    2.9125    0.0000 H       1  UNL1        0.0266
     29 H           5.2665   -1.4396    0.0000 H       1  UNL1        0.0646
     30 H           4.1736    1.9073    0.0000 H       1  UNL1        0.0238
     31 H           3.3266    1.6804    0.0000 H       1  UNL1        0.0238
     32 H           3.5536    0.8334    0.0000 H       1  UNL1        0.0238
     33 H           7.4984    0.2457    0.0000 H       1  UNL1        0.0235
     34 H           8.1255    0.8585    0.0000 H       1  UNL1        0.0235
     35 H           7.5127    1.4856    0.0000 H       1  UNL1        0.0235
     36 H           6.4551   -0.2983    0.0000 H       1  UNL1        0.0235
     37 H           7.2993   -0.5350    0.0000 H       1  UNL1        0.0235
     38 H           7.5360    0.3092    0.0000 H       1  UNL1        0.0235
     39 H           2.3048    0.7713    0.0000 H       1  UNL1        0.1108
     40 H           5.2665   -2.4396    0.0000 H       1  UNL1        0.2102
     41 H           2.0000    1.7535    0.0000 H       1  UNL1        0.2139
@<TRIPOS>BOND
     1     1    18    1
     2     1    19    1
     3    13     2    1
     4     2    40    1
     5    18     3    1
     6     3    41    1
     7     4    19    2
     8     5     6    1
     9     5     7    1
    10     5     9    1
    11     5    20    1
    12     6     8    1
    13     6    11    1
    14     6    14    1
    15     7    10    1
    16     7    16    1
    17     7    17    1
    18     8    12    1
    19     8    21    1
    20     8    22    1
    21     9    13    1
    22     9    23    1
    23     9    24    1
    24    10    12    1
    25    10    25    1
    26    10    26    1
    27    11    15    2
    28    11    18    1
    29    12    27    1
    30    12    28    1
    31    13    15    1
    32    13    29    1
    33    14    30    1
    34    14    31    1
    35    14    32    1
    36    15    19    1
    37    16    33    1
    38    16    34    1
    39    16    35    1
    40    17    36    1
    41    17    37    1
    42    17    38    1
    43    18    39    1
