@<TRIPOS>MOLECULE
IMPHY015783
 41 44 0 0 0
SMALL
GASTEIGER

@<TRIPOS>ATOM
      1 O           9.8984    1.1276    0.0000 O.3     1  UNL1       -0.4815
      2 O           6.3624    1.1555    0.0000 O.2     1  UNL1       -0.4210
      3 O           4.5923    1.1450    0.0000 O.2     1  UNL1       -0.2445
      4 O           3.7205    0.5933    0.0000 O.3     1  UNL1       -0.5060
      5 O           2.0000   -2.4134    0.0000 O.3     1  UNL1       -0.5066
      6 C           9.9065    2.1692    0.0000 C.3     1  UNL1        0.1235
      7 C           8.1224    1.1208    0.0000 C.ar    1  UNL1        0.0594
      8 C           8.9884    0.6208    0.0000 C.ar    1  UNL1        0.1324
      9 C           9.0044    2.6901    0.0000 C.2     1  UNL1       -0.0408
     10 C           7.2564    0.6208    0.0000 C.ar    1  UNL1        0.1497
     11 C           8.1063    2.1623    0.0000 C.2     1  UNL1       -0.0478
     12 C          10.4098    3.0333    0.0000 C.3     1  UNL1       -0.0215
     13 C          10.9065    2.1654    0.0000 C.3     1  UNL1       -0.0215
     14 C           7.2564   -0.3792    0.0000 C.ar    1  UNL1        0.0190
     15 C           8.9884   -0.3792    0.0000 C.ar    1  UNL1       -0.0185
     16 C           8.1224   -0.8792    0.0000 C.ar    1  UNL1       -0.0476
     17 C           6.3624   -0.9139    0.0000 C.ar    1  UNL1       -0.0364
     18 C           5.4564   -0.4000    0.0000 C.ar    1  UNL1        0.0707
     19 C           5.4564    0.6416    0.0000 C.ar    1  UNL1        0.3452
     20 C           4.5923   -0.9033    0.0000 C.ar    1  UNL1        0.0306
     21 C           3.7243   -0.4067    0.0000 C.ar    1  UNL1        0.1282
     22 C           4.5961   -1.9033    0.0000 C.ar    1  UNL1       -0.0469
     23 C           2.8602   -0.9100    0.0000 C.ar    1  UNL1        0.0219
     24 C           3.7320   -2.4067    0.0000 C.ar    1  UNL1       -0.0194
     25 C           2.8641   -1.9100    0.0000 C.ar    1  UNL1        0.1204
     26 H           9.0020    3.3101    0.0000 H       1  UNL1        0.0611
     27 H           7.5659    2.4661    0.0000 H       1  UNL1        0.0624
     28 H          10.9455    2.7213    0.0000 H       1  UNL1        0.0271
     29 H          10.7219    3.5691    0.0000 H       1  UNL1        0.0271
     30 H           9.8740    3.3454    0.0000 H       1  UNL1        0.0271
     31 H          10.9041    1.5454    0.0000 H       1  UNL1        0.0271
     32 H          11.5264    2.1630    0.0000 H       1  UNL1        0.0271
     33 H          10.9088    2.7854    0.0000 H       1  UNL1        0.0271
     34 H           9.5254   -0.6892    0.0000 H       1  UNL1        0.0654
     35 H           8.1224   -1.4992    0.0000 H       1  UNL1        0.0626
     36 H           6.3696   -1.5338    0.0000 H       1  UNL1        0.0633
     37 H           5.1343   -2.2113    0.0000 H       1  UNL1        0.0626
     38 H           2.3221   -0.6021    0.0000 H       1  UNL1        0.0691
     39 H           3.7344   -3.0267    0.0000 H       1  UNL1        0.0654
     40 H           3.1824    0.9012    0.0000 H       1  UNL1        0.2922
     41 H           2.0024   -3.0333    0.0000 H       1  UNL1        0.2921
@<TRIPOS>BOND
     1     1     6    1
     2     1     8    1
     3     2    10   ar
     4     2    19   ar
     5     3    19    2
     6     4    21    1
     7     4    40    1
     8     5    25    1
     9     5    41    1
    10     6     9    1
    11     6    12    1
    12     6    13    1
    13     7     8   ar
    14     7    10   ar
    15     7    11    1
    16     8    15   ar
    17     9    11    2
    18     9    26    1
    19    10    14   ar
    20    11    27    1
    21    12    28    1
    22    12    29    1
    23    12    30    1
    24    13    31    1
    25    13    32    1
    26    13    33    1
    27    14    16   ar
    28    14    17   ar
    29    15    16   ar
    30    15    34    1
    31    16    35    1
    32    17    18   ar
    33    17    36    1
    34    18    19   ar
    35    18    20    1
    36    20    21   ar
    37    20    22   ar
    38    21    23   ar
    39    22    24   ar
    40    22    37    1
    41    23    25   ar
    42    23    38    1
    43    24    25   ar
    44    24    39    1
