@<TRIPOS>MOLECULE
IMPHY015677
 36 35 0 0 0
SMALL
GASTEIGER

@<TRIPOS>ATOM
      1 O          10.6603    0.2500    0.0000 O.2     1  UNL1       -0.3007
      2 C           5.4641    0.2500    0.0000 C.3     1  UNL1       -0.0317
      3 C           4.5981   -0.2500    0.0000 C.3     1  UNL1       -0.0457
      4 C           6.3301   -0.2500    0.0000 C.2     1  UNL1       -0.0765
      5 C           8.0622   -0.2500    0.0000 C.3     1  UNL1       -0.0255
      6 C           8.9282    0.2500    0.0000 C.3     1  UNL1        0.0151
      7 C           3.7320    0.2500    0.0000 C.3     1  UNL1       -0.0320
      8 C           7.1962    0.2500    0.0000 C.2     1  UNL1       -0.0844
      9 C           6.3301   -1.2500    0.0000 C.3     1  UNL1       -0.0438
     10 C           2.8660   -0.2500    0.0000 C.2     1  UNL1       -0.0797
     11 C           8.9282    1.2500    0.0000 C.3     1  UNL1       -0.0557
     12 C           9.7942   -0.2500    0.0000 C.2     1  UNL1        0.1234
     13 C           2.0000    0.2500    0.0000 C.3     1  UNL1       -0.0440
     14 C           2.8660   -1.2500    0.0000 C.2     1  UNL1       -0.0997
     15 H           5.8626    0.7249    0.0000 H       1  UNL1        0.0310
     16 H           5.0656    0.7249    0.0000 H       1  UNL1        0.0310
     17 H           4.1996   -0.7249    0.0000 H       1  UNL1        0.0271
     18 H           4.9966   -0.7249    0.0000 H       1  UNL1        0.0271
     19 H           7.6636   -0.7249    0.0000 H       1  UNL1        0.0314
     20 H           8.4607   -0.7249    0.0000 H       1  UNL1        0.0314
     21 H           9.4651    0.5600    0.0000 H       1  UNL1        0.0375
     22 H           4.1306    0.7249    0.0000 H       1  UNL1        0.0310
     23 H           3.3335    0.7249    0.0000 H       1  UNL1        0.0310
     24 H           7.1962    0.8700    0.0000 H       1  UNL1        0.0572
     25 H           5.7101   -1.2500    0.0000 H       1  UNL1        0.0274
     26 H           6.3301   -1.8700    0.0000 H       1  UNL1        0.0274
     27 H           6.9501   -1.2500    0.0000 H       1  UNL1        0.0274
     28 H           9.5482    1.2500    0.0000 H       1  UNL1        0.0236
     29 H           8.9282    1.8700    0.0000 H       1  UNL1        0.0236
     30 H           8.3082    1.2500    0.0000 H       1  UNL1        0.0236
     31 H           9.7942   -0.8700    0.0000 H       1  UNL1        0.1029
     32 H           2.3100    0.7869    0.0000 H       1  UNL1        0.0274
     33 H           1.4631    0.5600    0.0000 H       1  UNL1        0.0274
     34 H           1.6900   -0.2869    0.0000 H       1  UNL1        0.0274
     35 H           2.3291   -1.5600    0.0000 H       1  UNL1        0.0534
     36 H           3.4030   -1.5600    0.0000 H       1  UNL1        0.0534
@<TRIPOS>BOND
     1     1    12    2
     2     2     3    1
     3     2     4    1
     4     2    15    1
     5     2    16    1
     6     3     7    1
     7     3    17    1
     8     3    18    1
     9     4     8    2
    10     4     9    1
    11     5     6    1
    12     5     8    1
    13     5    19    1
    14     5    20    1
    15     6    11    1
    16     6    12    1
    17     6    21    1
    18     7    10    1
    19     7    22    1
    20     7    23    1
    21     8    24    1
    22     9    25    1
    23     9    26    1
    24     9    27    1
    25    10    13    1
    26    10    14    2
    27    11    28    1
    28    11    29    1
    29    11    30    1
    30    12    31    1
    31    13    32    1
    32    13    33    1
    33    13    34    1
    34    14    35    1
    35    14    36    1
