@<TRIPOS>MOLECULE
IMPHY005432
 75 79 0 0 0
SMALL
GASTEIGER

@<TRIPOS>ATOM
      1 O           6.8671   -1.8743    0.0000 O.3     1  UNL1       -0.3313
      2 O           4.2690   -4.3743    0.0000 O.3     1  UNL1       -0.3431
      3 O           6.0010   -4.3743    0.0000 O.3     1  UNL1       -0.3461
      4 O           7.7331   -4.3743    0.0000 O.3     1  UNL1       -0.3865
      5 O           9.4651   -3.3743    0.0000 O.3     1  UNL1       -0.3864
      6 O           7.7331   -0.3743    0.0000 O.3     1  UNL1       -0.4606
      7 O           9.4651   -1.3743    0.0000 O.3     1  UNL1       -0.3829
      8 O           6.0010   -6.3743    0.0000 O.3     1  UNL1       -0.3841
      9 O           4.2690   -7.3743    0.0000 O.3     1  UNL1       -0.3864
     10 O           2.5369   -6.3743    0.0000 O.3     1  UNL1       -0.3866
     11 O           5.9589    2.6777    0.0000 O.2     1  UNL1       -0.4544
     12 O           4.1934   -0.3470    0.0000 O.3     1  UNL1       -0.5058
     13 O           3.3550    1.1877    0.0000 O.2     1  UNL1       -0.2869
     14 O           5.1102    7.1810    0.0000 O.3     1  UNL1       -0.4915
     15 O           6.8384    6.1743    0.0000 O.3     1  UNL1       -0.5033
     16 C           6.8671   -2.8743    0.0000 C.3     1  UNL1        0.1144
     17 C           7.7331   -3.3743    0.0000 C.3     1  UNL1        0.1120
     18 C           8.5991   -2.8743    0.0000 C.3     1  UNL1        0.1152
     19 C           8.5991   -1.8743    0.0000 C.3     1  UNL1        0.1454
     20 C           5.1350   -5.8743    0.0000 C.3     1  UNL1        0.1341
     21 C           5.1350   -4.8743    0.0000 C.3     1  UNL1        0.1879
     22 C           4.2690   -6.3743    0.0000 C.3     1  UNL1        0.1140
     23 C           3.4030   -5.8743    0.0000 C.3     1  UNL1        0.1095
     24 C           7.7331   -1.3743    0.0000 C.3     1  UNL1        0.2308
     25 C           3.4030   -4.8743    0.0000 C.3     1  UNL1        0.0873
     26 C           6.0010   -3.3743    0.0000 C.3     1  UNL1        0.0796
     27 C           2.5369   -4.3743    0.0000 C.3     1  UNL1       -0.0361
     28 C           6.8671    0.1257    0.0000 C.ar    1  UNL1        0.1310
     29 C           6.8630    1.1673    0.0000 C.ar    1  UNL1        0.0235
     30 C           5.9630   -0.3916    0.0000 C.ar    1  UNL1        0.0226
     31 C           5.9550    1.6777    0.0000 C.ar    1  UNL1        0.1462
     32 C           5.0670    0.1396    0.0000 C.ar    1  UNL1        0.1347
     33 C           5.0871    1.1810    0.0000 C.ar    1  UNL1        0.1055
     34 C           4.2230    1.6844    0.0000 C.ar    1  UNL1        0.1966
     35 C           5.0948    3.1810    0.0000 C.ar    1  UNL1        0.1393
     36 C           4.2268    2.6843    0.0000 C.ar    1  UNL1        0.0288
     37 C           5.0986    4.1810    0.0000 C.ar    1  UNL1        0.0211
     38 C           5.9666    4.6776    0.0000 C.ar    1  UNL1       -0.0059
     39 C           4.2345    4.6843    0.0000 C.ar    1  UNL1       -0.0474
     40 C           5.9704    5.6776    0.0000 C.ar    1  UNL1        0.1591
     41 C           4.2384    5.6843    0.0000 C.ar    1  UNL1       -0.0156
     42 C           5.1063    6.1810    0.0000 C.ar    1  UNL1        0.1613
     43 C           4.2461    7.6843    0.0000 C.3     1  UNL1        0.0790
     44 H           6.3301   -2.5643    0.0000 H       1  UNL1        0.0647
     45 H           8.2700   -3.6843    0.0000 H       1  UNL1        0.0647
     46 H           9.1360   -2.5643    0.0000 H       1  UNL1        0.0648
     47 H           8.5991   -1.2543    0.0000 H       1  UNL1        0.0683
     48 H           5.1350   -6.4943    0.0000 H       1  UNL1        0.0671
     49 H           5.1350   -4.2543    0.0000 H       1  UNL1        0.0937
     50 H           3.7320   -6.6843    0.0000 H       1  UNL1        0.0648
     51 H           3.4030   -6.4943    0.0000 H       1  UNL1        0.0646
     52 H           7.1962   -1.0643    0.0000 H       1  UNL1        0.1084
     53 H           3.4030   -4.2543    0.0000 H       1  UNL1        0.0621
     54 H           5.7890   -2.7917    0.0000 H       1  UNL1        0.0587
     55 H           5.3905   -3.4820    0.0000 H       1  UNL1        0.0587
     56 H           2.8469   -3.8374    0.0000 H       1  UNL1        0.0255
     57 H           2.0000   -4.0643    0.0000 H       1  UNL1        0.0255
     58 H           2.2269   -4.9112    0.0000 H       1  UNL1        0.0255
     59 H           8.2700   -4.6843    0.0000 H       1  UNL1        0.2100
     60 H          10.0021   -3.0643    0.0000 H       1  UNL1        0.2100
     61 H           9.4651   -0.7543    0.0000 H       1  UNL1        0.2102
     62 H           6.5380   -6.0643    0.0000 H       1  UNL1        0.2101
     63 H           3.7320   -7.6843    0.0000 H       1  UNL1        0.2100
     64 H           2.0000   -6.0643    0.0000 H       1  UNL1        0.2100
     65 H           7.3976    1.4814    0.0000 H       1  UNL1        0.0691
     66 H           5.9582   -1.0116    0.0000 H       1  UNL1        0.0691
     67 H           3.6911    2.9964    0.0000 H       1  UNL1        0.0693
     68 H           4.1838   -0.9669    0.0000 H       1  UNL1        0.2922
     69 H           6.5023    4.3656    0.0000 H       1  UNL1        0.0662
     70 H           3.6964    4.3764    0.0000 H       1  UNL1        0.0626
     71 H           3.7026    5.9964    0.0000 H       1  UNL1        0.0655
     72 H           6.8408    6.7943    0.0000 H       1  UNL1        0.2923
     73 H           4.5582    8.2200    0.0000 H       1  UNL1        0.0660
     74 H           3.7104    7.9964    0.0000 H       1  UNL1        0.0660
     75 H           3.9340    7.1486    0.0000 H       1  UNL1        0.0660
@<TRIPOS>BOND
     1     1    16    1
     2     1    24    1
     3     2    21    1
     4     2    25    1
     5    21     3    1
     6     3    26    1
     7    17     4    1
     8     4    59    1
     9    18     5    1
    10     5    60    1
    11    24     6    1
    12     6    28    1
    13    19     7    1
    14     7    61    1
    15    20     8    1
    16     8    62    1
    17    22     9    1
    18     9    63    1
    19    23    10    1
    20    10    64    1
    21    11    31   ar
    22    11    35   ar
    23    12    32    1
    24    12    68    1
    25    13    34    2
    26    14    42    1
    27    14    43    1
    28    15    40    1
    29    15    72    1
    30    16    17    1
    31    16    26    1
    32    16    44    1
    33    17    18    1
    34    17    45    1
    35    18    19    1
    36    18    46    1
    37    19    24    1
    38    19    47    1
    39    20    21    1
    40    20    22    1
    41    20    48    1
    42    21    49    1
    43    22    23    1
    44    22    50    1
    45    23    25    1
    46    23    51    1
    47    24    52    1
    48    25    27    1
    49    25    53    1
    50    26    54    1
    51    26    55    1
    52    27    56    1
    53    27    57    1
    54    27    58    1
    55    28    29   ar
    56    28    30   ar
    57    29    31   ar
    58    29    65    1
    59    30    32   ar
    60    30    66    1
    61    31    33   ar
    62    32    33   ar
    63    33    34   ar
    64    34    36   ar
    65    35    36   ar
    66    35    37    1
    67    36    67    1
    68    37    38   ar
    69    37    39   ar
    70    38    40   ar
    71    38    69    1
    72    39    41   ar
    73    39    70    1
    74    40    42   ar
    75    41    42   ar
    76    41    71    1
    77    43    73    1
    78    43    74    1
    79    43    75    1
