@<TRIPOS>MOLECULE
IMPHY005067
 31 33 0 0 0
SMALL
GASTEIGER

@<TRIPOS>ATOM
      1 O           6.0682   -1.6581    0.0000 O.2     1  UNL1       -0.4241
      2 O           7.8003   -1.6581    0.0000 O.3     1  UNL1       -0.4251
      3 O           4.3198    1.3765    0.0000 O.3     1  UNL1       -0.5058
      4 O           2.5381   -1.6822    0.0000 O.3     1  UNL1       -0.5065
      5 O           6.0682    1.3419    0.0000 O.2     1  UNL1       -0.2868
      6 O          11.2644    0.3419    0.0000 O.3     1  UNL1       -0.5068
      7 C           5.2022   -0.1581    0.0000 C.ar    1  UNL1        0.1057
      8 C           5.2022   -1.1581    0.0000 C.ar    1  UNL1        0.1496
      9 C           4.3083    0.3766    0.0000 C.ar    1  UNL1        0.1347
     10 C           6.0682    0.3419    0.0000 C.ar    1  UNL1        0.1998
     11 C           4.3083   -1.6927    0.0000 C.ar    1  UNL1        0.0232
     12 C           6.9343   -1.1581    0.0000 C.ar    1  UNL1        0.2959
     13 C           6.9343   -0.1581    0.0000 C.ar    1  UNL1        0.0666
     14 C           3.4022   -1.1789    0.0000 C.ar    1  UNL1        0.1239
     15 C           3.4022   -0.1372    0.0000 C.ar    1  UNL1        0.0223
     16 C           8.6663   -1.1581    0.0000 C.ar    1  UNL1        0.1321
     17 C           9.5323   -1.6581    0.0000 C.ar    1  UNL1       -0.0158
     18 C           8.6663   -0.1581    0.0000 C.ar    1  UNL1       -0.0158
     19 C          10.3984   -1.1581    0.0000 C.ar    1  UNL1       -0.0167
     20 C           9.5323    0.3419    0.0000 C.ar    1  UNL1       -0.0167
     21 C          10.3984   -0.1581    0.0000 C.ar    1  UNL1        0.1171
     22 H           4.3154   -2.3127    0.0000 H       1  UNL1        0.0691
     23 H           7.4712    0.1519    0.0000 H       1  UNL1        0.0727
     24 H           2.8665    0.1748    0.0000 H       1  UNL1        0.0691
     25 H           9.5323   -2.2781    0.0000 H       1  UNL1        0.0655
     26 H           8.1294    0.1519    0.0000 H       1  UNL1        0.0655
     27 H          10.9353   -1.4681    0.0000 H       1  UNL1        0.0655
     28 H           9.5323    0.9619    0.0000 H       1  UNL1        0.0655
     29 H           3.7865    1.6927    0.0000 H       1  UNL1        0.2922
     30 H           2.0000   -1.3743    0.0000 H       1  UNL1        0.2921
     31 H          11.8013    0.0319    0.0000 H       1  UNL1        0.2921
@<TRIPOS>BOND
     1     1     8   ar
     2     1    12   ar
     3     2    12    1
     4     2    16    1
     5     3     9    1
     6     3    29    1
     7     4    14    1
     8     4    30    1
     9     5    10    2
    10     6    21    1
    11     6    31    1
    12     7     8   ar
    13     7     9   ar
    14     7    10   ar
    15     8    11   ar
    16     9    15   ar
    17    10    13   ar
    18    11    14   ar
    19    11    22    1
    20    12    13   ar
    21    13    23    1
    22    14    15   ar
    23    15    24    1
    24    16    17   ar
    25    16    18   ar
    26    17    19   ar
    27    17    25    1
    28    18    20   ar
    29    18    26    1
    30    19    21   ar
    31    19    27    1
    32    20    21   ar
    33    20    28    1
