@<TRIPOS>MOLECULE
IMPHY015176
 92 91 0 0 0
SMALL
GASTEIGER

@<TRIPOS>ATOM
      1 BR          2.0000    0.2500    0.0000 Br      1  UNL1       -0.0918
      2 C          14.9904   -0.2500    0.0000 C.3     1  UNL1       -0.0531
      3 C          15.8564    0.2500    0.0000 C.3     1  UNL1       -0.0531
      4 C          14.1244    0.2500    0.0000 C.3     1  UNL1       -0.0531
      5 C          16.7224   -0.2500    0.0000 C.3     1  UNL1       -0.0531
      6 C          13.2583   -0.2500    0.0000 C.3     1  UNL1       -0.0531
      7 C          17.5885    0.2500    0.0000 C.3     1  UNL1       -0.0531
      8 C          12.3923    0.2500    0.0000 C.3     1  UNL1       -0.0531
      9 C          18.4545   -0.2500    0.0000 C.3     1  UNL1       -0.0531
     10 C          11.5263   -0.2500    0.0000 C.3     1  UNL1       -0.0531
     11 C          19.3205    0.2500    0.0000 C.3     1  UNL1       -0.0531
     12 C          10.6603    0.2500    0.0000 C.3     1  UNL1       -0.0531
     13 C          20.1865   -0.2500    0.0000 C.3     1  UNL1       -0.0531
     14 C           9.7942   -0.2500    0.0000 C.3     1  UNL1       -0.0531
     15 C          21.0526    0.2500    0.0000 C.3     1  UNL1       -0.0531
     16 C           8.9282    0.2500    0.0000 C.3     1  UNL1       -0.0531
     17 C          21.9186   -0.2500    0.0000 C.3     1  UNL1       -0.0531
     18 C           8.0622   -0.2500    0.0000 C.3     1  UNL1       -0.0531
     19 C          22.7846    0.2500    0.0000 C.3     1  UNL1       -0.0531
     20 C           7.1962    0.2500    0.0000 C.3     1  UNL1       -0.0531
     21 C          23.6506   -0.2500    0.0000 C.3     1  UNL1       -0.0531
     22 C           6.3301   -0.2500    0.0000 C.3     1  UNL1       -0.0531
     23 C          24.5167    0.2500    0.0000 C.3     1  UNL1       -0.0531
     24 C           5.4641    0.2500    0.0000 C.3     1  UNL1       -0.0530
     25 C          25.3827   -0.2500    0.0000 C.3     1  UNL1       -0.0531
     26 C           4.5981   -0.2500    0.0000 C.3     1  UNL1       -0.0523
     27 C          26.2487    0.2500    0.0000 C.3     1  UNL1       -0.0533
     28 C           3.7320    0.2500    0.0000 C.3     1  UNL1       -0.0434
     29 C          27.1147   -0.2500    0.0000 C.3     1  UNL1       -0.0559
     30 C           2.8660   -0.2500    0.0000 C.3     1  UNL1        0.0033
     31 C          27.9808    0.2500    0.0000 C.3     1  UNL1       -0.0653
     32 H          14.5919   -0.7249    0.0000 H       1  UNL1        0.0265
     33 H          15.3889   -0.7249    0.0000 H       1  UNL1        0.0265
     34 H          16.2549    0.7249    0.0000 H       1  UNL1        0.0265
     35 H          15.4579    0.7249    0.0000 H       1  UNL1        0.0265
     36 H          14.5229    0.7249    0.0000 H       1  UNL1        0.0265
     37 H          13.7258    0.7249    0.0000 H       1  UNL1        0.0265
     38 H          16.3239   -0.7249    0.0000 H       1  UNL1        0.0265
     39 H          17.1210   -0.7249    0.0000 H       1  UNL1        0.0265
     40 H          12.8598   -0.7249    0.0000 H       1  UNL1        0.0265
     41 H          13.6569   -0.7249    0.0000 H       1  UNL1        0.0265
     42 H          17.9870    0.7249    0.0000 H       1  UNL1        0.0265
     43 H          17.1899    0.7249    0.0000 H       1  UNL1        0.0265
     44 H          12.7908    0.7249    0.0000 H       1  UNL1        0.0265
     45 H          11.9938    0.7249    0.0000 H       1  UNL1        0.0265
     46 H          18.0560   -0.7249    0.0000 H       1  UNL1        0.0265
     47 H          18.8530   -0.7249    0.0000 H       1  UNL1        0.0265
     48 H          11.1278   -0.7249    0.0000 H       1  UNL1        0.0265
     49 H          11.9248   -0.7249    0.0000 H       1  UNL1        0.0265
     50 H          19.7190    0.7249    0.0000 H       1  UNL1        0.0265
     51 H          18.9220    0.7249    0.0000 H       1  UNL1        0.0265
     52 H          11.0588    0.7249    0.0000 H       1  UNL1        0.0265
     53 H          10.2617    0.7249    0.0000 H       1  UNL1        0.0265
     54 H          19.7880   -0.7249    0.0000 H       1  UNL1        0.0265
     55 H          20.5851   -0.7249    0.0000 H       1  UNL1        0.0265
     56 H           9.3957   -0.7249    0.0000 H       1  UNL1        0.0265
     57 H          10.1928   -0.7249    0.0000 H       1  UNL1        0.0265
     58 H          21.4511    0.7249    0.0000 H       1  UNL1        0.0265
     59 H          20.6540    0.7249    0.0000 H       1  UNL1        0.0265
     60 H           9.3267    0.7249    0.0000 H       1  UNL1        0.0265
     61 H           8.5297    0.7249    0.0000 H       1  UNL1        0.0265
     62 H          21.5201   -0.7249    0.0000 H       1  UNL1        0.0265
     63 H          22.3171   -0.7249    0.0000 H       1  UNL1        0.0265
     64 H           7.6636   -0.7249    0.0000 H       1  UNL1        0.0265
     65 H           8.4607   -0.7249    0.0000 H       1  UNL1        0.0265
     66 H          23.1831    0.7249    0.0000 H       1  UNL1        0.0265
     67 H          22.3861    0.7249    0.0000 H       1  UNL1        0.0265
     68 H           7.5947    0.7249    0.0000 H       1  UNL1        0.0265
     69 H           6.7976    0.7249    0.0000 H       1  UNL1        0.0265
     70 H          23.2521   -0.7249    0.0000 H       1  UNL1        0.0265
     71 H          24.0492   -0.7249    0.0000 H       1  UNL1        0.0265
     72 H           5.9316   -0.7249    0.0000 H       1  UNL1        0.0265
     73 H           6.7287   -0.7249    0.0000 H       1  UNL1        0.0265
     74 H          24.9152    0.7249    0.0000 H       1  UNL1        0.0265
     75 H          24.1181    0.7249    0.0000 H       1  UNL1        0.0265
     76 H           5.8626    0.7249    0.0000 H       1  UNL1        0.0265
     77 H           5.0656    0.7249    0.0000 H       1  UNL1        0.0265
     78 H          24.9842   -0.7249    0.0000 H       1  UNL1        0.0265
     79 H          25.7812   -0.7249    0.0000 H       1  UNL1        0.0265
     80 H           4.1996   -0.7249    0.0000 H       1  UNL1        0.0266
     81 H           4.9966   -0.7249    0.0000 H       1  UNL1        0.0266
     82 H          26.6472    0.7249    0.0000 H       1  UNL1        0.0265
     83 H          25.8502    0.7249    0.0000 H       1  UNL1        0.0265
     84 H           4.1306    0.7249    0.0000 H       1  UNL1        0.0273
     85 H           3.3335    0.7249    0.0000 H       1  UNL1        0.0273
     86 H          26.7162   -0.7249    0.0000 H       1  UNL1        0.0263
     87 H          27.5133   -0.7249    0.0000 H       1  UNL1        0.0263
     88 H           2.4675   -0.7249    0.0000 H       1  UNL1        0.0382
     89 H           3.2646   -0.7249    0.0000 H       1  UNL1        0.0382
     90 H          28.2908   -0.2869    0.0000 H       1  UNL1        0.0230
     91 H          28.5177    0.5600    0.0000 H       1  UNL1        0.0230
     92 H          27.6708    0.7869    0.0000 H       1  UNL1        0.0230
@<TRIPOS>BOND
     1     1    30    1
     2     2     3    1
     3     2     4    1
     4     2    32    1
     5     2    33    1
     6     3     5    1
     7     3    34    1
     8     3    35    1
     9     4     6    1
    10     4    36    1
    11     4    37    1
    12     5     7    1
    13     5    38    1
    14     5    39    1
    15     6     8    1
    16     6    40    1
    17     6    41    1
    18     7     9    1
    19     7    42    1
    20     7    43    1
    21     8    10    1
    22     8    44    1
    23     8    45    1
    24     9    11    1
    25     9    46    1
    26     9    47    1
    27    10    12    1
    28    10    48    1
    29    10    49    1
    30    11    13    1
    31    11    50    1
    32    11    51    1
    33    12    14    1
    34    12    52    1
    35    12    53    1
    36    13    15    1
    37    13    54    1
    38    13    55    1
    39    14    16    1
    40    14    56    1
    41    14    57    1
    42    15    17    1
    43    15    58    1
    44    15    59    1
    45    16    18    1
    46    16    60    1
    47    16    61    1
    48    17    19    1
    49    17    62    1
    50    17    63    1
    51    18    20    1
    52    18    64    1
    53    18    65    1
    54    19    21    1
    55    19    66    1
    56    19    67    1
    57    20    22    1
    58    20    68    1
    59    20    69    1
    60    21    23    1
    61    21    70    1
    62    21    71    1
    63    22    24    1
    64    22    72    1
    65    22    73    1
    66    23    25    1
    67    23    74    1
    68    23    75    1
    69    24    26    1
    70    24    76    1
    71    24    77    1
    72    25    27    1
    73    25    78    1
    74    25    79    1
    75    26    28    1
    76    26    80    1
    77    26    81    1
    78    27    29    1
    79    27    82    1
    80    27    83    1
    81    28    30    1
    82    28    84    1
    83    28    85    1
    84    29    31    1
    85    29    86    1
    86    29    87    1
    87    30    88    1
    88    30    89    1
    89    31    90    1
    90    31    91    1
    91    31    92    1
