@<TRIPOS>MOLECULE
IMPHY001964
 80 85 0 0 0
SMALL
GASTEIGER

@<TRIPOS>ATOM
      1 O           4.4040   -0.7026    0.0000 O.3     1  UNL1       -0.3728
      2 O           7.7442    1.8904    0.0000 O.3     1  UNL1       -0.3791
      3 O           4.0278    1.6388    0.0000 O.3     1  UNL1       -0.4608
      4 O           3.6265    2.3483    0.0000 O.3     1  UNL1       -0.3793
      5 O           8.6102   -2.3448    0.0000 O.3     1  UNL1       -0.3824
      6 O           3.8725   -0.0862    0.0000 O.2     1  UNL1       -0.2512
      7 N           8.9395    0.0613    0.0000 N.3     1  UNL1       -0.2981
      8 C           6.9928    0.4566    0.0000 C.3     1  UNL1        0.0195
      9 C           6.3146    0.9975    0.0000 C.3     1  UNL1       -0.0220
     10 C           6.9928   -0.4110    0.0000 C.3     1  UNL1       -0.0220
     11 C           7.9948    0.3505    0.0000 C.3     1  UNL1        0.0244
     12 C           5.4687   -0.7589    0.0000 C.3     1  UNL1        0.0051
     13 C           5.4687    0.8044    0.0000 C.3     1  UNL1        0.0294
     14 C           5.0923    0.0228    0.0000 C.3     1  UNL1        0.0826
     15 C           6.3146   -0.9519    0.0000 C.3     1  UNL1       -0.0420
     16 C           7.7442   -0.8448    0.0000 C.3     1  UNL1        0.0104
     17 C           7.7442    0.8904    0.0000 C.3     1  UNL1        0.0659
     18 C           6.3923    1.8616    0.0000 C.3     1  UNL1       -0.0405
     19 C           5.5946    2.2026    0.0000 C.3     1  UNL1        0.0231
     20 C           5.0237    1.5492    0.0000 C.3     1  UNL1        0.1139
     21 C           4.4474    0.2927    0.0000 C.3     1  UNL1        0.0037
     22 C           8.9395   -0.6906    0.0000 C.3     1  UNL1        0.0072
     23 C           8.4955   -0.4110    0.0000 C.3     1  UNL1       -0.0415
     24 C           4.4474    1.7772    0.0000 C.3     1  UNL1        0.0671
     25 C           8.4955    0.4566    0.0000 C.3     1  UNL1       -0.0254
     26 C           7.7442   -1.8448    0.0000 C.3     1  UNL1        0.0544
     27 C           9.7435    0.6560    0.0000 C.3     1  UNL1       -0.0036
     28 C           4.1705   -1.6750    0.0000 C.3     1  UNL1        0.0456
     29 C          10.6605    0.2571    0.0000 C.3     1  UNL1       -0.0523
     30 C           8.6102    2.3904    0.0000 C.3     1  UNL1        0.0368
     31 C           3.4522    0.8211    0.0000 C.2     1  UNL1        0.3042
     32 C           3.7107    3.3448    0.0000 C.3     1  UNL1        0.0368
     33 C           3.2117   -1.9590    0.0000 C.3     1  UNL1       -0.0415
     34 C           8.6102   -3.3448    0.0000 C.3     1  UNL1        0.0365
     35 C           2.4562    0.9108    0.0000 C.3     1  UNL1        0.0332
     36 H           7.0962    1.3316    0.0000 H       1  UNL1        0.0312
     37 H           7.0564   -1.2586    0.0000 H       1  UNL1        0.0314
     38 H           8.3068    1.1412    0.0000 H       1  UNL1        0.0473
     39 H           5.3420   -1.5994    0.0000 H       1  UNL1        0.0344
     40 H           4.6196    0.7663    0.0000 H       1  UNL1        0.0368
     41 H           6.7993   -1.3385    0.0000 H       1  UNL1        0.0272
     42 H           6.0456   -1.5105    0.0000 H       1  UNL1        0.0272
     43 H           7.2073    1.2004    0.0000 H       1  UNL1        0.0602
     44 H           6.5751    2.4540    0.0000 H       1  UNL1        0.0273
     45 H           7.0006    1.7418    0.0000 H       1  UNL1        0.0273
     46 H           5.6153    3.0523    0.0000 H       1  UNL1        0.0362
     47 H           4.7929    2.1246    0.0000 H       1  UNL1        0.0741
     48 H           4.2855   -0.3058    0.0000 H       1  UNL1        0.0318
     49 H           3.8328    0.3744    0.0000 H       1  UNL1        0.0318
     50 H           9.5590   -0.6640    0.0000 H       1  UNL1        0.0433
     51 H           8.9925   -1.3083    0.0000 H       1  UNL1        0.0433
     52 H           9.1061   -0.3033    0.0000 H       1  UNL1        0.0273
     53 H           8.7076   -0.9936    0.0000 H       1  UNL1        0.0273
     54 H           4.5256    2.3923    0.0000 H       1  UNL1        0.0601
     55 H           8.7076    1.0392    0.0000 H       1  UNL1        0.0290
     56 H           9.1061    0.3489    0.0000 H       1  UNL1        0.0290
     57 H           7.5321   -2.4274    0.0000 H       1  UNL1        0.0566
     58 H           7.1336   -1.7371    0.0000 H       1  UNL1        0.0566
     59 H           9.2938    1.0829    0.0000 H       1  UNL1        0.0424
     60 H          10.0858    1.1730    0.0000 H       1  UNL1        0.0424
     61 H           4.7893   -1.7128    0.0000 H       1  UNL1        0.0557
     62 H           4.2407   -2.2910    0.0000 H       1  UNL1        0.0557
     63 H          10.9078    0.8256    0.0000 H       1  UNL1        0.0242
     64 H          11.2290    0.0098    0.0000 H       1  UNL1        0.0242
     65 H          10.4131   -0.3114    0.0000 H       1  UNL1        0.0242
     66 H           8.3002    2.9273    0.0000 H       1  UNL1        0.0524
     67 H           9.1472    2.7004    0.0000 H       1  UNL1        0.0524
     68 H           8.9202    1.8534    0.0000 H       1  UNL1        0.0524
     69 H           3.0929    3.3970    0.0000 H       1  UNL1        0.0524
     70 H           3.7629    3.9626    0.0000 H       1  UNL1        0.0524
     71 H           4.3285    3.2926    0.0000 H       1  UNL1        0.0524
     72 H           3.3879   -2.5535    0.0000 H       1  UNL1        0.0252
     73 H           2.6173   -2.1352    0.0000 H       1  UNL1        0.0252
     74 H           3.0356   -1.3646    0.0000 H       1  UNL1        0.0252
     75 H           9.2302   -3.3448    0.0000 H       1  UNL1        0.0523
     76 H           8.6102   -3.9648    0.0000 H       1  UNL1        0.0523
     77 H           7.9902   -3.3448    0.0000 H       1  UNL1        0.0523
     78 H           2.4006    0.2933    0.0000 H       1  UNL1        0.0342
     79 H           1.8387    0.9664    0.0000 H       1  UNL1        0.0342
     80 H           2.5118    1.5283    0.0000 H       1  UNL1        0.0342
@<TRIPOS>BOND
     1    14     1    1
     2     1    28    1
     3     2    17    1
     4     2    30    1
     5    20     3    1
     6     3    31    1
     7    24     4    1
     8     4    32    1
     9     5    26    1
    10     5    34    1
    11     6    31    2
    12     7    11    1
    13     7    22    1
    14     7    27    1
    15     8     9    1
    16     8    10    1
    17     8    11    1
    18     8    17    1
    19     9    13    1
    20     9    18    1
    21     9    36    1
    22    10    15    1
    23    10    16    1
    24    10    37    1
    25    11    12    1
    26    11    38    1
    27    12    14    1
    28    12    15    1
    29    12    39    1
    30    13    14    1
    31    13    20    1
    32    13    40    1
    33    14    21    1
    34    15    41    1
    35    15    42    1
    36    16    22    1
    37    16    23    1
    38    16    26    1
    39    17    25    1
    40    17    43    1
    41    18    19    1
    42    18    44    1
    43    18    45    1
    44    19    20    1
    45    19    24    1
    46    19    46    1
    47    20    47    1
    48    21    24    1
    49    21    48    1
    50    21    49    1
    51    22    50    1
    52    22    51    1
    53    23    25    1
    54    23    52    1
    55    23    53    1
    56    24    54    1
    57    25    55    1
    58    25    56    1
    59    26    57    1
    60    26    58    1
    61    27    29    1
    62    27    59    1
    63    27    60    1
    64    28    33    1
    65    28    61    1
    66    28    62    1
    67    29    63    1
    68    29    64    1
    69    29    65    1
    70    30    66    1
    71    30    67    1
    72    30    68    1
    73    31    35    1
    74    32    69    1
    75    32    70    1
    76    32    71    1
    77    33    72    1
    78    33    73    1
    79    33    74    1
    80    34    75    1
    81    34    76    1
    82    34    77    1
    83    35    78    1
    84    35    79    1
    85    35    80    1
