@<TRIPOS>MOLECULE
IMPHY006245
 45 46 0 0 0
SMALL
GASTEIGER

@<TRIPOS>ATOM
      1 O           3.7320   -0.3100    0.0000 O.3     1  UNL1       -0.5055
      2 O           5.4641   -3.3100    0.0000 O.3     1  UNL1       -0.5062
      3 O           7.1962   -0.3100    0.0000 O.3     1  UNL1       -0.5058
      4 O           4.5981    1.1900    0.0000 O.2     1  UNL1       -0.2870
      5 O           9.7942    4.1900    0.0000 O.3     1  UNL1       -0.5068
      6 C           4.5981   -1.8100    0.0000 C.ar    1  UNL1        0.0400
      7 C           3.7320   -2.3100    0.0000 C.3     1  UNL1       -0.0023
      8 C           4.5981   -0.8100    0.0000 C.ar    1  UNL1        0.1381
      9 C           5.4641   -0.3100    0.0000 C.ar    1  UNL1        0.1048
     10 C           5.4641   -2.3100    0.0000 C.ar    1  UNL1        0.1273
     11 C           6.3301   -0.8100    0.0000 C.ar    1  UNL1        0.1347
     12 C           3.7320   -3.3100    0.0000 C.2     1  UNL1       -0.0807
     13 C           6.3301   -1.8100    0.0000 C.ar    1  UNL1        0.0225
     14 C           2.8660   -3.8100    0.0000 C.2     1  UNL1       -0.0793
     15 C           5.4641    0.6900    0.0000 C.2     1  UNL1        0.1931
     16 C           6.3301    1.1900    0.0000 C.2     1  UNL1       -0.0135
     17 C           2.8660   -4.8100    0.0000 C.3     1  UNL1       -0.0440
     18 C           2.0000   -3.3100    0.0000 C.3     1  UNL1       -0.0440
     19 C           6.3301    2.1900    0.0000 C.2     1  UNL1       -0.0510
     20 C           7.1962    2.6900    0.0000 C.ar    1  UNL1       -0.0247
     21 C           8.0622    2.1900    0.0000 C.ar    1  UNL1       -0.0511
     22 C           7.1962    3.6900    0.0000 C.ar    1  UNL1       -0.0511
     23 C           8.9282    2.6900    0.0000 C.ar    1  UNL1       -0.0196
     24 C           8.0622    4.1900    0.0000 C.ar    1  UNL1       -0.0196
     25 C           8.9282    3.6900    0.0000 C.ar    1  UNL1        0.1169
     26 H           3.5200   -1.7274    0.0000 H       1  UNL1        0.0358
     27 H           3.1215   -2.4177    0.0000 H       1  UNL1        0.0358
     28 H           4.2690   -3.6200    0.0000 H       1  UNL1        0.0575
     29 H           6.8671   -2.1200    0.0000 H       1  UNL1        0.0691
     30 H           6.8671    0.8800    0.0000 H       1  UNL1        0.0656
     31 H           2.2460   -4.8100    0.0000 H       1  UNL1        0.0274
     32 H           2.3100   -2.7731    0.0000 H       1  UNL1        0.0274
     33 H           1.4631   -3.0000    0.0000 H       1  UNL1        0.0274
     34 H           1.6900   -3.8469    0.0000 H       1  UNL1        0.0274
     35 H           2.8660   -5.4300    0.0000 H       1  UNL1        0.0274
     36 H           3.4860   -4.8100    0.0000 H       1  UNL1        0.0274
     37 H           3.1951   -0.6200    0.0000 H       1  UNL1        0.2922
     38 H           5.7932    2.5000    0.0000 H       1  UNL1        0.0625
     39 H           6.0010   -3.6200    0.0000 H       1  UNL1        0.2921
     40 H           7.7331   -0.6200    0.0000 H       1  UNL1        0.2922
     41 H           8.0622    1.5700    0.0000 H       1  UNL1        0.0625
     42 H           6.6592    4.0000    0.0000 H       1  UNL1        0.0625
     43 H           9.4651    2.3800    0.0000 H       1  UNL1        0.0654
     44 H           8.0622    4.8100    0.0000 H       1  UNL1        0.0654
     45 H           9.7942    4.8100    0.0000 H       1  UNL1        0.2921
@<TRIPOS>BOND
     1     1     8    1
     2     1    37    1
     3     2    10    1
     4     2    39    1
     5     3    11    1
     6     3    40    1
     7     4    15    2
     8     5    25    1
     9     5    45    1
    10     6     7    1
    11     6     8   ar
    12     6    10   ar
    13     7    12    1
    14     7    26    1
    15     7    27    1
    16     8     9   ar
    17     9    11   ar
    18     9    15    1
    19    10    13   ar
    20    11    13   ar
    21    12    14    2
    22    12    28    1
    23    13    29    1
    24    14    17    1
    25    14    18    1
    26    15    16    1
    27    16    19    2
    28    16    30    1
    29    17    31    1
    30    17    35    1
    31    17    36    1
    32    18    32    1
    33    18    33    1
    34    18    34    1
    35    19    20    1
    36    19    38    1
    37    20    21   ar
    38    20    22   ar
    39    21    23   ar
    40    21    41    1
    41    22    24   ar
    42    22    42    1
    43    23    25   ar
    44    23    43    1
    45    24    25   ar
    46    24    44    1
