@<TRIPOS>MOLECULE
IMPHY004660
 31 33 0 0 0
SMALL
GASTEIGER

@<TRIPOS>ATOM
      1 O           6.0682   -0.2704    0.0000 O.2     1  UNL1       -0.4544
      2 O           4.3198    2.7642    0.0000 O.3     1  UNL1       -0.5058
      3 O           6.0682    2.7296    0.0000 O.2     1  UNL1       -0.2869
      4 O           2.5381   -0.2945    0.0000 O.3     1  UNL1       -0.5065
      5 O           8.6663   -2.7704    0.0000 O.3     1  UNL1       -0.5033
      6 O          10.3984   -1.7704    0.0000 O.3     1  UNL1       -0.5033
      7 C           5.2022    1.2296    0.0000 C.ar    1  UNL1        0.1055
      8 C           5.2022    0.2296    0.0000 C.ar    1  UNL1        0.1462
      9 C           6.9343    0.2296    0.0000 C.ar    1  UNL1        0.1393
     10 C           7.8003   -0.2704    0.0000 C.ar    1  UNL1        0.0211
     11 C           6.0682    1.7296    0.0000 C.ar    1  UNL1        0.1966
     12 C           6.9343    1.2296    0.0000 C.ar    1  UNL1        0.0288
     13 C           4.3083    1.7643    0.0000 C.ar    1  UNL1        0.1347
     14 C           4.3083   -0.3051    0.0000 C.ar    1  UNL1        0.0231
     15 C           7.8003   -1.2704    0.0000 C.ar    1  UNL1       -0.0059
     16 C           3.4022    0.2088    0.0000 C.ar    1  UNL1        0.1239
     17 C           3.4022    1.2504    0.0000 C.ar    1  UNL1        0.0223
     18 C           8.6663    0.2296    0.0000 C.ar    1  UNL1       -0.0474
     19 C           8.6663   -1.7704    0.0000 C.ar    1  UNL1        0.1589
     20 C           9.5323   -0.2704    0.0000 C.ar    1  UNL1       -0.0159
     21 C           9.5323   -1.2704    0.0000 C.ar    1  UNL1        0.1583
     22 H           7.4712    1.5396    0.0000 H       1  UNL1        0.0693
     23 H           4.3154   -0.9250    0.0000 H       1  UNL1        0.0691
     24 H           7.2634   -1.5804    0.0000 H       1  UNL1        0.0662
     25 H           2.8665    1.5625    0.0000 H       1  UNL1        0.0691
     26 H           8.6663    0.8496    0.0000 H       1  UNL1        0.0626
     27 H          10.0693    0.0396    0.0000 H       1  UNL1        0.0655
     28 H           3.7865    3.0804    0.0000 H       1  UNL1        0.2922
     29 H           2.0000    0.0134    0.0000 H       1  UNL1        0.2921
     30 H           8.1294   -3.0804    0.0000 H       1  UNL1        0.2923
     31 H          10.9353   -1.4604    0.0000 H       1  UNL1        0.2923
@<TRIPOS>BOND
     1     1     8   ar
     2     1     9   ar
     3     2    13    1
     4     2    28    1
     5     3    11    2
     6     4    16    1
     7     4    29    1
     8     5    19    1
     9     5    30    1
    10     6    21    1
    11     6    31    1
    12     7     8   ar
    13     7    11   ar
    14     7    13   ar
    15     8    14   ar
    16     9    10    1
    17     9    12   ar
    18    10    15   ar
    19    10    18   ar
    20    11    12   ar
    21    12    22    1
    22    13    17   ar
    23    14    16   ar
    24    14    23    1
    25    15    19   ar
    26    15    24    1
    27    16    17   ar
    28    17    25    1
    29    18    20   ar
    30    18    26    1
    31    19    21   ar
    32    20    21   ar
    33    20    27    1
