@<TRIPOS>MOLECULE
IMPHY007419
 20 20 0 0 0
SMALL
GASTEIGER

@<TRIPOS>ATOM
      1 O           3.7320    1.7500    0.0000 O.3     1  UNL1       -0.4950
      2 O           2.0000   -1.2500    0.0000 O.3     1  UNL1       -0.4950
      3 C           3.7320    0.7500    0.0000 C.ar    1  UNL1        0.1236
      4 C           2.8660   -0.7500    0.0000 C.ar    1  UNL1        0.1236
      5 C           2.8660    0.2500    0.0000 C.ar    1  UNL1        0.0217
      6 C           4.5981    0.2500    0.0000 C.ar    1  UNL1       -0.0197
      7 C           3.7320   -1.2500    0.0000 C.ar    1  UNL1       -0.0197
      8 C           4.5981   -0.7500    0.0000 C.ar    1  UNL1       -0.0549
      9 C           4.5981    2.2500    0.0000 C.3     1  UNL1        0.0788
     10 C           2.0000   -2.2500    0.0000 C.3     1  UNL1        0.0788
     11 H           2.3291    0.5600    0.0000 H       1  UNL1        0.0691
     12 H           5.1350    0.5600    0.0000 H       1  UNL1        0.0654
     13 H           3.7320   -1.8700    0.0000 H       1  UNL1        0.0654
     14 H           5.1350   -1.0600    0.0000 H       1  UNL1        0.0620
     15 H           4.9081    1.7131    0.0000 H       1  UNL1        0.0660
     16 H           5.1350    2.5600    0.0000 H       1  UNL1        0.0660
     17 H           4.2881    2.7869    0.0000 H       1  UNL1        0.0660
     18 H           1.3800   -2.2500    0.0000 H       1  UNL1        0.0660
     19 H           2.0000   -2.8700    0.0000 H       1  UNL1        0.0660
     20 H           2.6200   -2.2500    0.0000 H       1  UNL1        0.0660
@<TRIPOS>BOND
     1     1     3    1
     2     1     9    1
     3     2     4    1
     4     2    10    1
     5     3     5   ar
     6     3     6   ar
     7     4     5   ar
     8     4     7   ar
     9     5    11    1
    10     6     8   ar
    11     6    12    1
    12     7     8   ar
    13     7    13    1
    14     8    14    1
    15     9    15    1
    16     9    16    1
    17     9    17    1
    18    10    18    1
    19    10    19    1
    20    10    20    1
