@<TRIPOS>MOLECULE
IMPHY009868
 35 34 0 0 0
SMALL
GASTEIGER

@<TRIPOS>ATOM
      1 O           6.3301    0.2500    0.0000 O.3     1  UNL1       -0.4644
      2 O           7.1962   -1.2500    0.0000 O.2     1  UNL1       -0.2505
      3 C           2.8660    0.2500    0.0000 C.3     1  UNL1       -0.0466
      4 C           3.7320   -0.2500    0.0000 C.3     1  UNL1       -0.0476
      5 C           4.5981    0.2500    0.0000 C.3     1  UNL1       -0.0183
      6 C           8.0622    0.2500    0.0000 C.3     1  UNL1        0.0534
      7 C           5.4641   -0.2500    0.0000 C.3     1  UNL1        0.0925
      8 C           2.0000   -0.2500    0.0000 C.3     1  UNL1       -0.0627
      9 C           2.8660    1.2500    0.0000 C.3     1  UNL1       -0.0627
     10 C           8.9282   -0.2500    0.0000 C.3     1  UNL1       -0.0432
     11 C           7.1962   -0.2500    0.0000 C.2     1  UNL1        0.3099
     12 C           8.0622    1.2500    0.0000 C.3     1  UNL1       -0.0523
     13 C           9.7942    0.2500    0.0000 C.3     1  UNL1       -0.0645
     14 H           2.8660   -0.3700    0.0000 H       1  UNL1        0.0295
     15 H           3.3335   -0.7249    0.0000 H       1  UNL1        0.0269
     16 H           4.1306   -0.7249    0.0000 H       1  UNL1        0.0269
     17 H           4.9966    0.7249    0.0000 H       1  UNL1        0.0298
     18 H           4.1996    0.7249    0.0000 H       1  UNL1        0.0298
     19 H           7.5252    0.5600    0.0000 H       1  UNL1        0.0410
     20 H           5.0656   -0.7249    0.0000 H       1  UNL1        0.0697
     21 H           5.8626   -0.7249    0.0000 H       1  UNL1        0.0697
     22 H           3.4860    1.2500    0.0000 H       1  UNL1        0.0232
     23 H           2.8660    1.8700    0.0000 H       1  UNL1        0.0232
     24 H           2.2460    1.2500    0.0000 H       1  UNL1        0.0232
     25 H           1.6900    0.2869    0.0000 H       1  UNL1        0.0232
     26 H           1.4631   -0.5600    0.0000 H       1  UNL1        0.0232
     27 H           2.3100   -0.7869    0.0000 H       1  UNL1        0.0232
     28 H           8.5297   -0.7249    0.0000 H       1  UNL1        0.0270
     29 H           9.3267   -0.7249    0.0000 H       1  UNL1        0.0270
     30 H           8.6822    1.2500    0.0000 H       1  UNL1        0.0238
     31 H           8.0622    1.8700    0.0000 H       1  UNL1        0.0238
     32 H           7.4422    1.2500    0.0000 H       1  UNL1        0.0238
     33 H          10.1042   -0.2869    0.0000 H       1  UNL1        0.0230
     34 H          10.3312    0.5600    0.0000 H       1  UNL1        0.0230
     35 H           9.4842    0.7869    0.0000 H       1  UNL1        0.0230
@<TRIPOS>BOND
     1     1     7    1
     2     1    11    1
     3     2    11    2
     4     3     4    1
     5     3     8    1
     6     3     9    1
     7     3    14    1
     8     4     5    1
     9     4    15    1
    10     4    16    1
    11     5     7    1
    12     5    17    1
    13     5    18    1
    14     6    10    1
    15     6    11    1
    16     6    12    1
    17     6    19    1
    18     7    20    1
    19     7    21    1
    20     8    25    1
    21     8    26    1
    22     8    27    1
    23     9    22    1
    24     9    23    1
    25     9    24    1
    26    10    13    1
    27    10    28    1
    28    10    29    1
    29    12    30    1
    30    12    31    1
    31    12    32    1
    32    13    33    1
    33    13    34    1
    34    13    35    1
