@<TRIPOS>MOLECULE
IMPHY017839
 40 42 0 0 0
SMALL
GASTEIGER

@<TRIPOS>ATOM
      1 O           4.0037    2.1353    0.0000 O.3     1  UNL1       -0.3886
      2 C           4.5037   -1.0553    0.0000 C.3     1  UNL1       -0.0254
      3 C           5.3302   -1.6191    0.0000 C.3     1  UNL1       -0.0281
      4 C           5.4047   -0.6214    0.0000 C.3     1  UNL1       -0.0316
      5 C           3.6027   -0.6214    0.0000 C.3     1  UNL1       -0.0111
      6 C           3.3802    0.3535    0.0000 C.3     1  UNL1       -0.0053
      7 C           5.6272    0.3535    0.0000 C.3     1  UNL1       -0.0468
      8 C           4.0037    1.1353    0.0000 C.3     1  UNL1        0.0667
      9 C           5.0037    1.1353    0.0000 C.3     1  UNL1       -0.0237
     10 C           6.3274   -1.6938    0.0000 C.3     1  UNL1       -0.0593
     11 C           4.7668   -2.4453    0.0000 C.3     1  UNL1       -0.0593
     12 C           2.7480   -1.1291    0.0000 C.2     1  UNL1       -0.0729
     13 C           2.3899    0.4400    0.0000 C.3     1  UNL1       -0.0434
     14 C           2.0000   -0.4744    0.0000 C.3     1  UNL1       -0.0314
     15 C           3.2219    1.7588    0.0000 C.3     1  UNL1       -0.0358
     16 C           2.6567   -2.1249    0.0000 C.2     1  UNL1       -0.0992
     17 H           4.0786   -1.7914    0.0000 H       1  UNL1        0.0315
     18 H           6.2452   -0.7480    0.0000 H       1  UNL1        0.0309
     19 H           3.6298   -1.2408    0.0000 H       1  UNL1        0.0352
     20 H           3.1358    0.9233    0.0000 H       1  UNL1        0.0334
     21 H           6.1858    0.0845    0.0000 H       1  UNL1        0.0269
     22 H           6.0138    0.8382    0.0000 H       1  UNL1        0.0269
     23 H           5.5623    1.4043    0.0000 H       1  UNL1        0.0293
     24 H           4.8657    1.7398    0.0000 H       1  UNL1        0.0293
     25 H           6.2810   -2.3121    0.0000 H       1  UNL1        0.0235
     26 H           6.9456   -1.7402    0.0000 H       1  UNL1        0.0235
     27 H           6.3737   -1.0756    0.0000 H       1  UNL1        0.0235
     28 H           4.2546   -2.0961    0.0000 H       1  UNL1        0.0235
     29 H           4.4176   -2.9576    0.0000 H       1  UNL1        0.0235
     30 H           5.2791   -2.7946    0.0000 H       1  UNL1        0.0235
     31 H           2.5085    1.0486    0.0000 H       1  UNL1        0.0272
     32 H           1.7972    0.6219    0.0000 H       1  UNL1        0.0272
     33 H           1.4584   -0.1726    0.0000 H       1  UNL1        0.0310
     34 H           1.6430   -0.9813    0.0000 H       1  UNL1        0.0310
     35 H           3.6084    2.2436    0.0000 H       1  UNL1        0.0257
     36 H           2.7371    2.1454    0.0000 H       1  UNL1        0.0257
     37 H           2.8353    1.2741    0.0000 H       1  UNL1        0.0257
     38 H           4.5406    2.4453    0.0000 H       1  UNL1        0.2102
     39 H           2.0937   -2.3845    0.0000 H       1  UNL1        0.0534
     40 H           3.1630   -2.4826    0.0000 H       1  UNL1        0.0534
@<TRIPOS>BOND
     1     8     1    1
     2     1    38    1
     3     2     3    1
     4     2     4    1
     5     2     5    1
     6     2    17    1
     7     3     4    1
     8     3    10    1
     9     3    11    1
    10     4     7    1
    11     4    18    1
    12     5     6    1
    13     5    12    1
    14     5    19    1
    15     6     8    1
    16     6    13    1
    17     6    20    1
    18     7     9    1
    19     7    21    1
    20     7    22    1
    21     8     9    1
    22     8    15    1
    23     9    23    1
    24     9    24    1
    25    10    25    1
    26    10    26    1
    27    10    27    1
    28    11    28    1
    29    11    29    1
    30    11    30    1
    31    12    14    1
    32    12    16    2
    33    13    14    1
    34    13    31    1
    35    13    32    1
    36    14    33    1
    37    14    34    1
    38    15    35    1
    39    15    36    1
    40    15    37    1
    41    16    39    1
    42    16    40    1
