@<TRIPOS>MOLECULE
IMPHY000832
 92 94 0 0 0
SMALL
GASTEIGER

@<TRIPOS>ATOM
      1 O           4.7390   -1.2876    0.0000 O.2     1  UNL1       -0.4888
      2 O           5.0745   -0.1060    0.0000 O.2     1  UNL1       -0.2948
      3 O           4.6756    2.0249    0.0000 O.2     1  UNL1       -0.2907
      4 O           7.1726    3.2004    0.0000 O.2     1  UNL1       -0.2956
      5 O           4.4938   -3.9825    0.0000 O.3     1  UNL1       -0.3855
      6 C           7.2304    1.3178    0.0000 C.3     1  UNL1       -0.0023
      7 C           6.3066   -0.9127    0.0000 C.3     1  UNL1        0.0915
      8 C           6.3066    1.7004    0.0000 C.3     1  UNL1        0.1555
      9 C           7.6131    0.3939    0.0000 C.3     1  UNL1       -0.0292
     10 C           7.2304   -0.5300    0.0000 C.3     1  UNL1       -0.0298
     11 C           5.9405    0.3939    0.0000 C.2     1  UNL1        0.1681
     12 C           6.2260   -1.9035    0.0000 C.3     1  UNL1        0.0063
     13 C           5.3827   -0.5300    0.0000 C.2     1  UNL1        0.1184
     14 C           8.1964    1.5766    0.0000 C.3     1  UNL1       -0.0422
     15 C           5.2592   -2.1347    0.0000 C.3     1  UNL1        0.1290
     16 C           5.3827    1.3178    0.0000 C.2     1  UNL1        0.1837
     17 C           7.4893    2.2837    0.0000 C.3     1  UNL1       -0.0576
     18 C           5.0000    0.3939    0.0000 C.2     1  UNL1        0.0385
     19 C           8.6131    0.3939    0.0000 C.3     1  UNL1       -0.0311
     20 C           6.3066    2.7004    0.0000 C.2     1  UNL1        0.1572
     21 C           4.8765   -3.0586    0.0000 C.3     1  UNL1        0.0971
     22 C           8.4552    2.5425    0.0000 C.3     1  UNL1       -0.0340
     23 C           5.4405    3.2004    0.0000 C.3     1  UNL1        0.0133
     24 C           4.0000    0.3939    0.0000 C.3     1  UNL1       -0.0027
     25 C           9.1131   -0.4721    0.0000 C.2     1  UNL1       -0.0850
     26 C           5.8004   -3.4413    0.0000 C.3     1  UNL1       -0.0328
     27 C           3.9526   -2.6759    0.0000 C.3     1  UNL1       -0.0328
     28 C           5.4405    4.2004    0.0000 C.3     1  UNL1       -0.0559
     29 C           4.5745    2.7004    0.0000 C.3     1  UNL1       -0.0559
     30 C           9.4211    2.8013    0.0000 C.2     1  UNL1       -0.0853
     31 C           3.5000    1.2599    0.0000 C.2     1  UNL1       -0.0808
     32 C          10.1131   -0.4721    0.0000 C.2     1  UNL1       -0.0796
     33 C           9.6799    3.7672    0.0000 C.2     1  UNL1       -0.0796
     34 C           2.5000    1.2599    0.0000 C.2     1  UNL1       -0.0793
     35 C          10.6131   -1.3382    0.0000 C.3     1  UNL1       -0.0440
     36 C          10.6131    0.3939    0.0000 C.3     1  UNL1       -0.0440
     37 C          10.6459    4.0261    0.0000 C.3     1  UNL1       -0.0440
     38 C           8.9728    4.4744    0.0000 C.3     1  UNL1       -0.0440
     39 C           2.0000    2.1259    0.0000 C.3     1  UNL1       -0.0440
     40 C           2.0000    0.3939    0.0000 C.3     1  UNL1       -0.0440
     41 H           7.9576    0.9094    0.0000 H       1  UNL1        0.0310
     42 H           7.3114   -1.1447    0.0000 H       1  UNL1        0.0282
     43 H           7.8451   -0.6109    0.0000 H       1  UNL1        0.0282
     44 H           6.3060   -2.5183    0.0000 H       1  UNL1        0.0315
     45 H           6.8458   -1.8885    0.0000 H       1  UNL1        0.0315
     46 H           8.2504    0.9589    0.0000 H       1  UNL1        0.0274
     47 H           8.8140    1.5225    0.0000 H       1  UNL1        0.0274
     48 H           4.6411   -2.1836    0.0000 H       1  UNL1        0.0762
     49 H           8.0881    2.1232    0.0000 H       1  UNL1        0.0236
     50 H           7.6497    2.8826    0.0000 H       1  UNL1        0.0236
     51 H           6.8904    2.4442    0.0000 H       1  UNL1        0.0236
     52 H           9.1957    0.6059    0.0000 H       1  UNL1        0.0310
     53 H           8.5055    1.0045    0.0000 H       1  UNL1        0.0310
     54 H           8.4012    3.1601    0.0000 H       1  UNL1        0.0308
     55 H           7.8376    2.5965    0.0000 H       1  UNL1        0.0308
     56 H           5.4405    2.5804    0.0000 H       1  UNL1        0.0372
     57 H           3.4174    0.1818    0.0000 H       1  UNL1        0.0358
     58 H           4.1077   -0.2167    0.0000 H       1  UNL1        0.0358
     59 H           8.8031   -1.0091    0.0000 H       1  UNL1        0.0572
     60 H           5.5631   -4.0141    0.0000 H       1  UNL1        0.0258
     61 H           4.1899   -2.1031    0.0000 H       1  UNL1        0.0258
     62 H           3.3798   -2.4386    0.0000 H       1  UNL1        0.0258
     63 H           3.7154   -3.2487    0.0000 H       1  UNL1        0.0258
     64 H           6.3732   -3.6785    0.0000 H       1  UNL1        0.0258
     65 H           6.0376   -2.8685    0.0000 H       1  UNL1        0.0258
     66 H           4.2645    3.2374    0.0000 H       1  UNL1        0.0236
     67 H           4.0376    2.3904    0.0000 H       1  UNL1        0.0236
     68 H           4.8845    2.1635    0.0000 H       1  UNL1        0.0236
     69 H           6.0605    4.2004    0.0000 H       1  UNL1        0.0236
     70 H           5.4405    4.8204    0.0000 H       1  UNL1        0.0236
     71 H           4.8205    4.2004    0.0000 H       1  UNL1        0.0236
     72 H           9.8595    2.3629    0.0000 H       1  UNL1        0.0571
     73 H           4.8712   -4.4744    0.0000 H       1  UNL1        0.2103
     74 H           3.8100    1.7968    0.0000 H       1  UNL1        0.0575
     75 H          11.1501    0.0839    0.0000 H       1  UNL1        0.0274
     76 H          10.9231    0.9308    0.0000 H       1  UNL1        0.0274
     77 H          10.0762    0.7039    0.0000 H       1  UNL1        0.0274
     78 H          10.0762   -1.6482    0.0000 H       1  UNL1        0.0274
     79 H          10.9231   -1.8751    0.0000 H       1  UNL1        0.0274
     80 H          11.1501   -1.0282    0.0000 H       1  UNL1        0.0274
     81 H          10.8063    3.4272    0.0000 H       1  UNL1        0.0274
     82 H          11.2447    4.1865    0.0000 H       1  UNL1        0.0274
     83 H          10.4854    4.6249    0.0000 H       1  UNL1        0.0274
     84 H           9.4112    4.9128    0.0000 H       1  UNL1        0.0274
     85 H           8.5344    4.9128    0.0000 H       1  UNL1        0.0274
     86 H           8.5344    4.0360    0.0000 H       1  UNL1        0.0274
     87 H           2.5369    2.4359    0.0000 H       1  UNL1        0.0274
     88 H           1.4631    0.7039    0.0000 H       1  UNL1        0.0274
     89 H           1.6900   -0.1431    0.0000 H       1  UNL1        0.0274
     90 H           2.5369    0.0839    0.0000 H       1  UNL1        0.0274
     91 H           1.6900    2.6629    0.0000 H       1  UNL1        0.0274
     92 H           1.4631    1.8159    0.0000 H       1  UNL1        0.0274
@<TRIPOS>BOND
     1     1    13    1
     2     1    15    1
     3     2    11    2
     4     3    16    2
     5     4    20    2
     6     5    21    1
     7     5    73    1
     8     6     8    1
     9     6     9    1
    10     6    14    1
    11     6    17    1
    12     7    10    1
    13     7    11    1
    14     7    12    1
    15     7    13    1
    16     8    11    1
    17     8    16    1
    18     8    20    1
    19     9    10    1
    20     9    19    1
    21     9    41    1
    22    10    42    1
    23    10    43    1
    24    12    15    1
    25    12    44    1
    26    12    45    1
    27    13    18    2
    28    14    22    1
    29    14    46    1
    30    14    47    1
    31    15    21    1
    32    15    48    1
    33    16    18    1
    34    17    49    1
    35    17    50    1
    36    17    51    1
    37    18    24    1
    38    19    25    1
    39    19    52    1
    40    19    53    1
    41    20    23    1
    42    21    26    1
    43    21    27    1
    44    22    30    1
    45    22    54    1
    46    22    55    1
    47    23    28    1
    48    23    29    1
    49    23    56    1
    50    24    31    1
    51    24    57    1
    52    24    58    1
    53    25    32    2
    54    25    59    1
    55    26    60    1
    56    26    64    1
    57    26    65    1
    58    27    61    1
    59    27    62    1
    60    27    63    1
    61    28    69    1
    62    28    70    1
    63    28    71    1
    64    29    66    1
    65    29    67    1
    66    29    68    1
    67    30    33    2
    68    30    72    1
    69    31    34    2
    70    31    74    1
    71    32    35    1
    72    32    36    1
    73    33    37    1
    74    33    38    1
    75    34    39    1
    76    34    40    1
    77    35    78    1
    78    35    79    1
    79    35    80    1
    80    36    75    1
    81    36    76    1
    82    36    77    1
    83    37    81    1
    84    37    82    1
    85    37    83    1
    86    38    84    1
    87    38    85    1
    88    38    86    1
    89    39    87    1
    90    39    91    1
    91    39    92    1
    92    40    88    1
    93    40    89    1
    94    40    90    1
