@<TRIPOS>MOLECULE
IMPHY003881
 37 41 0 0 0
SMALL
GASTEIGER

@<TRIPOS>ATOM
      1 O           8.9116    1.4799    0.0000 O.3     1  UNL1       -0.3877
      2 O           2.6079   -0.2270    0.0000 O.3     1  UNL1       -0.4526
      3 O           2.6079   -1.9034    0.0000 O.3     1  UNL1       -0.4526
      4 N           7.1256   -1.5652    0.0000 N.3     1  UNL1       -0.2939
      5 C           6.2596   -0.0652    0.0000 C.3     1  UNL1        0.0310
      6 C           7.1256   -0.5652    0.0000 C.3     1  UNL1        0.0265
      7 C           6.1461   -0.6688    0.0000 C.3     1  UNL1       -0.0256
      8 C           6.5462   -1.3616    0.0000 C.3     1  UNL1        0.0007
      9 C           5.3935   -0.5652    0.0000 C.ar    1  UNL1       -0.0278
     10 C           8.0356   -0.0584    0.0000 C.3     1  UNL1       -0.0065
     11 C           6.2596   -2.0652    0.0000 C.3     1  UNL1        0.0248
     12 C           6.2435    0.9763    0.0000 C.2     1  UNL1       -0.0736
     13 C           5.3935   -1.5652    0.0000 C.ar    1  UNL1       -0.0256
     14 C           8.0436    0.9832    0.0000 C.3     1  UNL1        0.0748
     15 C           7.1415    1.5040    0.0000 C.2     1  UNL1       -0.0589
     16 C           4.4996   -0.0306    0.0000 C.ar    1  UNL1       -0.0118
     17 C           4.4996   -2.0999    0.0000 C.ar    1  UNL1       -0.0114
     18 C           3.5935   -0.5444    0.0000 C.ar    1  UNL1        0.1665
     19 C           3.5935   -1.5860    0.0000 C.ar    1  UNL1        0.1665
     20 C           2.0000   -1.0652    0.0000 C.3     1  UNL1        0.2332
     21 H           7.8617   -0.9902    0.0000 H       1  UNL1        0.0475
     22 H           5.5942   -0.3864    0.0000 H       1  UNL1        0.0290
     23 H           5.7190   -1.1182    0.0000 H       1  UNL1        0.0290
     24 H           5.9434   -1.5069    0.0000 H       1  UNL1        0.0427
     25 H           6.5147   -1.9808    0.0000 H       1  UNL1        0.0427
     26 H           8.2401   -0.6437    0.0000 H       1  UNL1        0.0309
     27 H           8.6472    0.0430    0.0000 H       1  UNL1        0.0309
     28 H           5.8610   -2.5402    0.0000 H       1  UNL1        0.0476
     29 H           6.6581   -2.5402    0.0000 H       1  UNL1        0.0476
     30 H           5.7030    1.2801    0.0000 H       1  UNL1        0.0579
     31 H           8.0448    1.6032    0.0000 H       1  UNL1        0.0638
     32 H           7.1391    2.1240    0.0000 H       1  UNL1        0.0595
     33 H           4.5068    0.5894    0.0000 H       1  UNL1        0.0658
     34 H           4.5068   -2.7198    0.0000 H       1  UNL1        0.0658
     35 H           8.9139    2.0999    0.0000 H       1  UNL1        0.2102
     36 H           1.5391   -0.6505    0.0000 H       1  UNL1        0.1166
     37 H           1.5391   -1.4800    0.0000 H       1  UNL1        0.1166
@<TRIPOS>BOND
     1    14     1    1
     2     1    35    1
     3     2    18    1
     4     2    20    1
     5     3    19    1
     6     3    20    1
     7     4     6    1
     8     4     8    1
     9     4    11    1
    10     5     6    1
    11     5     7    1
    12     5     9    1
    13     5    12    1
    14     6    10    1
    15     6    21    1
    16     7     8    1
    17     7    22    1
    18     7    23    1
    19     8    24    1
    20     8    25    1
    21     9    13   ar
    22     9    16   ar
    23    10    14    1
    24    10    26    1
    25    10    27    1
    26    11    13    1
    27    11    28    1
    28    11    29    1
    29    12    15    2
    30    12    30    1
    31    13    17   ar
    32    14    15    1
    33    14    31    1
    34    15    32    1
    35    16    18   ar
    36    16    33    1
    37    17    19   ar
    38    17    34    1
    39    18    19   ar
    40    20    36    1
    41    20    37    1
