@<TRIPOS>MOLECULE
IMPHY005470
 25 27 0 0 0
SMALL
GASTEIGER

@<TRIPOS>ATOM
      1 O           6.0682   -1.6581    0.0000 O.2     1  UNL1       -0.4545
      2 O           6.0682    1.3419    0.0000 O.2     1  UNL1       -0.2863
      3 O           7.8167    1.3765    0.0000 O.3     1  UNL1       -0.5059
      4 O           2.5381    0.3661    0.0000 O.3     1  UNL1       -0.5067
      5 C           6.9343   -0.1581    0.0000 C.ar    1  UNL1        0.1058
      6 C           5.2022   -0.1581    0.0000 C.ar    1  UNL1        0.0681
      7 C           6.9343   -1.1581    0.0000 C.ar    1  UNL1        0.1428
      8 C           5.2022   -1.1581    0.0000 C.ar    1  UNL1        0.1395
      9 C           6.0682    0.3419    0.0000 C.ar    1  UNL1        0.2038
     10 C           7.8282    0.3766    0.0000 C.ar    1  UNL1        0.1312
     11 C           4.3083    0.3766    0.0000 C.ar    1  UNL1       -0.0058
     12 C           4.3083   -1.6927    0.0000 C.ar    1  UNL1       -0.0152
     13 C           7.8282   -1.6927    0.0000 C.ar    1  UNL1       -0.0184
     14 C           3.4022   -0.1372    0.0000 C.ar    1  UNL1        0.1178
     15 C           8.7343   -0.1372    0.0000 C.ar    1  UNL1       -0.0192
     16 C           3.4022   -1.1789    0.0000 C.ar    1  UNL1       -0.0167
     17 C           8.7343   -1.1789    0.0000 C.ar    1  UNL1       -0.0548
     18 H           4.3154    0.9966    0.0000 H       1  UNL1        0.0662
     19 H           4.3154   -2.3127    0.0000 H       1  UNL1        0.0656
     20 H           7.8210   -2.3127    0.0000 H       1  UNL1        0.0654
     21 H           9.2700    0.1748    0.0000 H       1  UNL1        0.0654
     22 H           2.8665   -1.4909    0.0000 H       1  UNL1        0.0655
     23 H           9.2700   -1.4909    0.0000 H       1  UNL1        0.0620
     24 H           8.3500    1.6927    0.0000 H       1  UNL1        0.2922
     25 H           2.0000    0.0582    0.0000 H       1  UNL1        0.2921
@<TRIPOS>BOND
     1     1     7   ar
     2     1     8   ar
     3     2     9    2
     4     3    10    1
     5     3    24    1
     6     4    14    1
     7     4    25    1
     8     5     7   ar
     9     5     9   ar
    10     5    10   ar
    11     6     8   ar
    12     6     9   ar
    13     6    11   ar
    14     7    13   ar
    15     8    12   ar
    16    10    15   ar
    17    11    14   ar
    18    11    18    1
    19    12    16   ar
    20    12    19    1
    21    13    17   ar
    22    13    20    1
    23    14    16   ar
    24    15    17   ar
    25    15    21    1
    26    16    22    1
    27    17    23    1
