@<TRIPOS>MOLECULE
IMPHY008511
 64 66 0 0 0
SMALL
GASTEIGER

@<TRIPOS>ATOM
      1 O           4.6660   -3.5225    0.0000 O.3     1  UNL1       -0.3875
      2 O           6.3981   -2.5225    0.0000 O.3     1  UNL1       -0.4540
      3 O           7.3022   -1.0257    0.0000 O.2     1  UNL1       -0.5060
      4 O           3.7782    1.0089    0.0000 O.2     1  UNL1       -0.2835
      5 O           5.5442    2.0467    0.0000 O.2     1  UNL1       -0.2834
      6 O           5.5321   -4.0225    0.0000 O.2     1  UNL1       -0.2511
      7 O           8.1898    2.5192    0.0000 O.3     1  UNL1       -0.4642
      8 O           7.3296    4.0225    0.0000 O.2     1  UNL1       -0.2512
      9 C           3.8000   -2.0225    0.0000 C.3     1  UNL1        0.0035
     10 C           3.8000   -1.0225    0.0000 C.3     1  UNL1        0.0030
     11 C           2.9061   -2.5572    0.0000 C.3     1  UNL1       -0.0288
     12 C           2.9061   -0.4879    0.0000 C.3     1  UNL1       -0.0431
     13 C           4.6660   -2.5225    0.0000 C.3     1  UNL1        0.1005
     14 C           2.0000   -2.0434    0.0000 C.3     1  UNL1       -0.0475
     15 C           2.0000   -1.0017    0.0000 C.3     1  UNL1       -0.0518
     16 C           4.6660   -0.5225    0.0000 C.2     1  UNL1        0.0196
     17 C           5.5321   -2.0225    0.0000 C.3     1  UNL1        0.1578
     18 C           3.8000   -0.0225    0.0000 C.3     1  UNL1       -0.0550
     19 C           5.5321   -1.0225    0.0000 C.2     1  UNL1        0.0445
     20 C           2.4161   -3.4290    0.0000 C.3     1  UNL1       -0.0594
     21 C           3.4160   -3.4174    0.0000 C.3     1  UNL1       -0.0594
     22 C           4.6500    0.5190    0.0000 C.2     1  UNL1        0.2298
     23 C           6.4421   -0.5157    0.0000 C.2     1  UNL1        0.1313
     24 C           6.4501    0.5259    0.0000 C.2     1  UNL1        0.0509
     25 C           5.5480    1.0467    0.0000 C.2     1  UNL1        0.2325
     26 C           7.3180    1.0226    0.0000 C.3     1  UNL1        0.0228
     27 C           6.3981   -3.5225    0.0000 C.2     1  UNL1        0.3046
     28 C           7.3219    2.0226    0.0000 C.3     1  UNL1        0.0992
     29 C           8.1821    0.5192    0.0000 C.3     1  UNL1       -0.0550
     30 C           7.2641   -4.0225    0.0000 C.3     1  UNL1        0.0333
     31 C           8.1937    3.5192    0.0000 C.2     1  UNL1        0.3040
     32 C           9.0616    4.0159    0.0000 C.3     1  UNL1        0.0332
     33 H           3.8066   -2.8725    0.0000 H       1  UNL1        0.0341
     34 H           3.3107   -0.0181    0.0000 H       1  UNL1        0.0274
     35 H           2.5124   -0.0089    0.0000 H       1  UNL1        0.0274
     36 H           5.2030   -2.8325    0.0000 H       1  UNL1        0.0637
     37 H           1.3891   -1.9373    0.0000 H       1  UNL1        0.0271
     38 H           1.7909   -2.6270    0.0000 H       1  UNL1        0.0271
     39 H           1.7909   -0.4180    0.0000 H       1  UNL1        0.0266
     40 H           1.3891   -1.1078    0.0000 H       1  UNL1        0.0266
     41 H           6.0690   -1.7125    0.0000 H       1  UNL1        0.0813
     42 H           4.4200   -0.0225    0.0000 H       1  UNL1        0.0238
     43 H           3.8000    0.5975    0.0000 H       1  UNL1        0.0238
     44 H           3.1800   -0.0225    0.0000 H       1  UNL1        0.0238
     45 H           1.8756   -3.1252    0.0000 H       1  UNL1        0.0235
     46 H           2.1123   -3.9694    0.0000 H       1  UNL1        0.0235
     47 H           2.9566   -3.7327    0.0000 H       1  UNL1        0.0235
     48 H           2.8827   -3.7336    0.0000 H       1  UNL1        0.0235
     49 H           3.7322   -3.9507    0.0000 H       1  UNL1        0.0235
     50 H           3.9494   -3.1012    0.0000 H       1  UNL1        0.0235
     51 H           4.1291   -3.8325    0.0000 H       1  UNL1        0.2100
     52 H           7.8562    1.3305    0.0000 H       1  UNL1        0.0381
     53 H           7.8427   -0.7219    0.0000 H       1  UNL1        0.2922
     54 H           7.1121    2.6060    0.0000 H       1  UNL1        0.0703
     55 H           6.7109    1.9172    0.0000 H       1  UNL1        0.0703
     56 H           7.8701   -0.0165    0.0000 H       1  UNL1        0.0237
     57 H           8.7179    0.2072    0.0000 H       1  UNL1        0.0237
     58 H           8.4942    1.0550    0.0000 H       1  UNL1        0.0237
     59 H           6.9541   -4.5595    0.0000 H       1  UNL1        0.0342
     60 H           7.8010   -4.3325    0.0000 H       1  UNL1        0.0342
     61 H           7.5741   -3.4856    0.0000 H       1  UNL1        0.0342
     62 H           9.3696    3.4777    0.0000 H       1  UNL1        0.0342
     63 H           9.5998    4.3238    0.0000 H       1  UNL1        0.0342
     64 H           8.7537    4.5540    0.0000 H       1  UNL1        0.0342
@<TRIPOS>BOND
     1    13     1    1
     2     1    51    1
     3    17     2    1
     4     2    27    1
     5     3    23    1
     6     3    53    1
     7     4    22    2
     8     5    25    2
     9     6    27    2
    10     7    28    1
    11     7    31    1
    12     8    31    2
    13     9    10    1
    14     9    11    1
    15     9    13    1
    16     9    33    1
    17    10    12    1
    18    10    16    1
    19    10    18    1
    20    11    14    1
    21    11    20    1
    22    11    21    1
    23    12    15    1
    24    12    34    1
    25    12    35    1
    26    13    17    1
    27    13    36    1
    28    14    15    1
    29    14    37    1
    30    14    38    1
    31    15    39    1
    32    15    40    1
    33    16    19    2
    34    16    22    1
    35    17    19    1
    36    17    41    1
    37    18    42    1
    38    18    43    1
    39    18    44    1
    40    19    23    1
    41    20    45    1
    42    20    46    1
    43    20    47    1
    44    21    48    1
    45    21    49    1
    46    21    50    1
    47    22    25    1
    48    23    24    2
    49    24    25    1
    50    24    26    1
    51    26    28    1
    52    26    29    1
    53    26    52    1
    54    27    30    1
    55    28    54    1
    56    28    55    1
    57    29    56    1
    58    29    57    1
    59    29    58    1
    60    30    59    1
    61    30    60    1
    62    30    61    1
    63    31    32    1
    64    32    62    1
    65    32    63    1
    66    32    64    1
