@<TRIPOS>MOLECULE
IMPHY017521
 22 22 0 0 0
SMALL
GASTEIGER

@<TRIPOS>ATOM
      1 O           3.7320    2.0000    0.0000 O.3     1  UNL1       -0.4645
      2 O           2.0000    2.0000    0.0000 O.2     1  UNL1       -0.2450
      3 C           2.8660    0.5000    0.0000 C.ar    1  UNL1        0.0590
      4 C           2.8660   -1.5000    0.0000 C.ar    1  UNL1       -0.0255
      5 C           2.0000    0.0000    0.0000 C.ar    1  UNL1       -0.0472
      6 C           3.7320   -0.0000    0.0000 C.ar    1  UNL1       -0.0472
      7 C           2.0000   -1.0000    0.0000 C.ar    1  UNL1       -0.0538
      8 C           3.7320   -1.0000    0.0000 C.ar    1  UNL1       -0.0538
      9 C           2.8660    1.5000    0.0000 C.2     1  UNL1        0.3389
     10 C           2.8660   -2.5000    0.0000 C.2     1  UNL1       -0.0617
     11 C           2.0000   -3.0000    0.0000 C.2     1  UNL1       -0.0981
     12 C           3.7320    3.0000    0.0000 C.3     1  UNL1        0.0820
     13 H           1.4631    0.3100    0.0000 H       1  UNL1        0.0626
     14 H           4.2690    0.3100    0.0000 H       1  UNL1        0.0626
     15 H           1.4631   -1.3100    0.0000 H       1  UNL1        0.0624
     16 H           4.2690   -1.3100    0.0000 H       1  UNL1        0.0624
     17 H           3.4030   -2.8100    0.0000 H       1  UNL1        0.0618
     18 H           4.3520    3.0000    0.0000 H       1  UNL1        0.0661
     19 H           3.7320    3.6200    0.0000 H       1  UNL1        0.0661
     20 H           3.1120    3.0000    0.0000 H       1  UNL1        0.0661
     21 H           1.4631   -2.6900    0.0000 H       1  UNL1        0.0535
     22 H           2.0000   -3.6200    0.0000 H       1  UNL1        0.0535
@<TRIPOS>BOND
     1     1     9    1
     2     1    12    1
     3     2     9    2
     4     3     5   ar
     5     3     6   ar
     6     3     9    1
     7     4     7   ar
     8     4     8   ar
     9     4    10    1
    10     5     7   ar
    11     5    13    1
    12     6     8   ar
    13     6    14    1
    14     7    15    1
    15     8    16    1
    16    10    11    2
    17    10    17    1
    18    11    21    1
    19    11    22    1
    20    12    18    1
    21    12    19    1
    22    12    20    1
