@<TRIPOS>MOLECULE
IMPHY008845
 87 95 0 0 0
SMALL
GASTEIGER

@<TRIPOS>ATOM
      1 O          12.2705    0.5522    0.0000 O.3     1  UNL1       -0.2232
      2 O           7.7434   -4.0002    0.0000 O.3     1  UNL1       -0.3315
      3 O          14.7040    1.2580    0.0000 O.3     1  UNL1       -0.3334
      4 O           6.8832   -2.4968    0.0000 O.3     1  UNL1       -0.3258
      5 O          15.9932    2.4147    0.0000 O.3     1  UNL1       -0.3257
      6 O           6.0075   -4.9935    0.0000 O.3     1  UNL1       -0.3231
      7 O          16.0397   -0.2307    0.0000 O.3     1  UNL1       -0.2149
      8 O           4.2793   -3.9868    0.0000 O.3     1  UNL1       -0.2175
      9 O          17.9967    0.1818    0.0000 O.3     1  UNL1       -0.2174
     10 O           4.2870   -1.9868    0.0000 O.3     1  UNL1       -0.2176
     11 O          18.6181    2.0828    0.0000 O.3     1  UNL1       -0.2176
     12 O           5.1588   -0.4902    0.0000 O.3     1  UNL1       -0.3259
     13 O          16.6145    4.3157    0.0000 O.3     1  UNL1       -0.3259
     14 O           4.2755   -4.9868    0.0000 O.3     1  UNL1       -0.3256
     15 O           5.9998   -6.9935    0.0000 O.3     1  UNL1       -0.2149
     16 O           4.2639   -7.9868    0.0000 O.3     1  UNL1       -0.2174
     17 O           6.0306    1.0065    0.0000 O.3     1  UNL1       -0.3284
     18 O          17.9037    5.4725    0.0000 O.3     1  UNL1       -0.3284
     19 O           2.5357   -6.9801    0.0000 O.3     1  UNL1       -0.2176
     20 O           3.4307    0.5165    0.0000 O.3     1  UNL1       -0.2149
     21 O           2.5473   -3.9801    0.0000 O.3     1  UNL1       -0.2176
     22 O          15.2788    5.8043    0.0000 O.3     1  UNL1       -0.2149
     23 O           3.4384    2.5165    0.0000 O.3     1  UNL1       -0.2174
     24 O          15.9002    7.7054    0.0000 O.3     1  UNL1       -0.2174
     25 O           5.1743    3.5098    0.0000 O.3     1  UNL1       -0.2177
     26 O          17.8572    8.1178    0.0000 O.3     1  UNL1       -0.2177
     27 C          12.2705   -2.4478    0.0000 C.3     1  UNL1        0.0002
     28 C          13.1365   -1.9478    0.0000 C.3     1  UNL1        0.0024
     29 C          11.4044   -1.9478    0.0000 C.3     1  UNL1        0.0025
     30 C          10.4944   -2.4547    0.0000 C.3     1  UNL1       -0.0001
     31 C          13.1365   -0.9478    0.0000 C.3     1  UNL1        0.0327
     32 C          10.4864   -3.4963    0.0000 C.3     1  UNL1        0.0022
     33 C          12.2865   -3.4893    0.0000 C.3     1  UNL1        0.0000
     34 C          14.0827   -0.6431    0.0000 C.3     1  UNL1        0.0275
     35 C          11.4044   -0.9478    0.0000 C.3     1  UNL1        0.0329
     36 C          12.2705   -0.4478    0.0000 C.3     1  UNL1        0.1520
     37 C          14.0827   -2.2526    0.0000 C.3     1  UNL1        0.0002
     38 C          11.3885   -4.0171    0.0000 C.3     1  UNL1        0.0001
     39 C           9.5510   -4.0460    0.0000 C.3     1  UNL1        0.0248
     40 C          14.6663   -1.4478    0.0000 C.3     1  UNL1        0.0024
     41 C           9.5676   -1.8906    0.0000 C.3     1  UNL1       -0.0018
     42 C          12.9133   -3.2139    0.0000 C.3     1  UNL1        0.0000
     43 C          13.4786   -2.8875    0.0000 C.3     1  UNL1        0.0001
     44 C          10.5022   -1.4547    0.0000 C.3     1  UNL1       -0.0000
     45 C           8.6114   -3.5035    0.0000 C.3     1  UNL1        0.1137
     46 C          14.3934    0.3074    0.0000 C.3     1  UNL1        0.0957
     47 C           8.6197   -2.4185    0.0000 C.3     1  UNL1        0.0050
     48 C           9.0543   -4.9139    0.0000 C.3     1  UNL1        0.0024
     49 C          10.0543   -4.9101    0.0000 C.3     1  UNL1        0.0024
     50 C          15.3439   -0.0032    0.0000 C.3     1  UNL1        0.0319
     51 C          13.4429    0.6181    0.0000 C.3     1  UNL1        0.0297
     52 C          15.5501   -0.9817    0.0000 C.3     1  UNL1        0.0278
     53 C           6.8793   -3.4968    0.0000 C.3     1  UNL1        0.2661
     54 C          15.6825    1.4642    0.0000 C.3     1  UNL1        0.2693
     55 C           6.0114   -3.9935    0.0000 C.3     1  UNL1        0.2066
     56 C          16.3504    0.7199    0.0000 C.3     1  UNL1        0.2406
     57 C          16.5006   -1.2924    0.0000 C.2     1  UNL1       -0.0345
     58 C           5.1473   -3.4901    0.0000 C.3     1  UNL1        0.2166
     59 C          17.3289    0.9261    0.0000 C.3     1  UNL1        0.2198
     60 C           6.0191   -1.9935    0.0000 C.3     1  UNL1        0.1802
     61 C          16.9717    2.6209    0.0000 C.3     1  UNL1        0.1802
     62 C           5.1511   -2.4901    0.0000 C.3     1  UNL1        0.2142
     63 C          17.6396    1.8766    0.0000 C.3     1  UNL1        0.2143
     64 C          16.7069   -2.2709    0.0000 C.2     1  UNL1       -0.0478
     65 C           6.0229   -0.9935    0.0000 C.3     1  UNL1        0.1770
     66 C          17.2824    3.5714    0.0000 C.3     1  UNL1        0.1770
     67 C           5.1396   -5.4901    0.0000 C.3     1  UNL1        0.2696
     68 C          17.6574   -2.5816    0.0000 C.3     1  UNL1        0.0260
     69 C          15.9626   -2.9387    0.0000 C.3     1  UNL1        0.0260
     70 C           5.1357   -6.4901    0.0000 C.3     1  UNL1        0.2406
     71 C           4.2678   -6.9868    0.0000 C.3     1  UNL1        0.2198
     72 C           3.4075   -5.4835    0.0000 C.3     1  UNL1        0.1835
     73 C           3.4037   -6.4834    0.0000 C.3     1  UNL1        0.2144
     74 C           5.1627    0.5098    0.0000 C.3     1  UNL1        0.2695
     75 C          16.9252    5.2663    0.0000 C.3     1  UNL1        0.2695
     76 C           4.2986    1.0132    0.0000 C.3     1  UNL1        0.2406
     77 C           2.5434   -4.9801    0.0000 C.3     1  UNL1        0.2142
     78 C          16.2574    6.0106    0.0000 C.3     1  UNL1        0.2406
     79 C           4.3025    2.0132    0.0000 C.3     1  UNL1        0.2197
     80 C          16.5680    6.9611    0.0000 C.3     1  UNL1        0.2197
     81 C           6.0345    2.0065    0.0000 C.3     1  UNL1        0.1508
     82 C          18.2144    6.4230    0.0000 C.3     1  UNL1        0.1508
     83 C           5.1704    2.5098    0.0000 C.3     1  UNL1        0.2118
     84 C          17.5465    7.1673    0.0000 C.3     1  UNL1        0.2118
     85 C           6.9024    2.5031    0.0000 C.3     1  UNL1        0.0350
     86 C          19.1929    6.6292    0.0000 C.3     1  UNL1        0.0350
     87 H           8.3558   -1.6633    0.0000 H       1  UNL1        0.0339
@<TRIPOS>BOND
     1     1    36    1
     2     2    45    1
     3     4    53    1
     4     4    60    1
     5     5    54    1
     6     5    61    1
     7    12    65    1
     8    13    66    1
     9    14    67    1
    10    14    72    1
    11    17    74    1
    12    17    81    1
    13    18    75    1
    14    18    82    1
    15    21    77    1
    16    27    28    1
    17    27    29    1
    18    27    33    1
    19    27    42    1
    20    28    31    1
    21    28    37    1
    22    28    43    1
    23    29    30    1
    24    29    35    1
    25    30    32    1
    26    30    41    1
    27    30    44    1
    28    31    34    1
    29    31    36    1
    30    32    38    1
    31    32    39    1
    32    33    38    1
    33    34    40    1
    34    34    46    1
    35    35    36    1
    36    37    40    1
    37    39    45    1
    38    39    48    1
    39    39    49    1
    40    41    47    1
    41    45    47    1
    42    46     3    1
    43    46    50    1
    44    46    51    1
    45    47    87    1
    46    50    52    1
    47    52    57    1
    48    53     2    1
    49    53    55    1
    50    54     3    1
    51    54    56    1
    52    55     6    1
    53    55    58    1
    54    56     7    1
    55    56    59    1
    56    57    64    2
    57    58     8    1
    58    58    62    1
    59    59     9    1
    60    59    63    1
    61    60    62    1
    62    60    65    1
    63    61    63    1
    64    61    66    1
    65    62    10    1
    66    63    11    1
    67    64    68    1
    68    64    69    1
    69    67     6    1
    70    67    70    1
    71    70    15    1
    72    70    71    1
    73    71    16    1
    74    71    73    1
    75    72    73    1
    76    72    77    1
    77    73    19    1
    78    74    12    1
    79    74    76    1
    80    75    13    1
    81    75    78    1
    82    76    20    1
    83    76    79    1
    84    78    22    1
    85    78    80    1
    86    79    23    1
    87    79    83    1
    88    80    24    1
    89    80    84    1
    90    81    83    1
    91    81    85    1
    92    82    84    1
    93    82    86    1
    94    83    25    1
    95    84    26    1
