@<TRIPOS>MOLECULE
IMPHY016712
 39 41 0 0 0
SMALL
GASTEIGER

@<TRIPOS>ATOM
      1 C           4.5725   -1.0958    0.0000 C.3     1  UNL1       -0.0322
      2 C           5.7936   -0.2301    0.0000 C.3     1  UNL1       -0.0253
      3 C           3.7435   -0.5366    0.0000 C.3     1  UNL1       -0.0346
      4 C           2.9617   -1.1506    0.0000 C.3     1  UNL1       -0.0407
      5 C           4.0191    0.4247    0.0000 C.3     1  UNL1       -0.0432
      6 C           6.0524    0.7358    0.0000 C.3     1  UNL1       -0.0198
      7 C           4.2960   -2.0506    0.0000 C.3     1  UNL1       -0.0492
      8 C           4.8158    1.5845    0.0000 C.3     1  UNL1       -0.0465
      9 C           7.1925   -0.7389    0.0000 C.3     1  UNL1       -0.0260
     10 C           3.3025   -2.0845    0.0000 C.3     1  UNL1       -0.0499
     11 C           5.6818    2.0845    0.0000 C.3     1  UNL1       -0.0460
     12 C           7.4513    0.2270    0.0000 C.2     1  UNL1       -0.0730
     13 C           6.0524   -1.1960    0.0000 C.3     1  UNL1       -0.0590
     14 C           2.0000   -0.8766    0.0000 C.3     1  UNL1       -0.0622
     15 C           8.3173    0.7270    0.0000 C.2     1  UNL1       -0.0992
     16 H           5.2772   -1.5711    0.0000 H       1  UNL1        0.0309
     17 H           3.0388   -0.0613    0.0000 H       1  UNL1        0.0306
     18 H           2.5395   -1.6046    0.0000 H       1  UNL1        0.0301
     19 H           4.0141    1.0447    0.0000 H       1  UNL1        0.0274
     20 H           3.4048    0.5085    0.0000 H       1  UNL1        0.0274
     21 H           6.2724    1.5569    0.0000 H       1  UNL1        0.0346
     22 H           4.2519   -2.6690    0.0000 H       1  UNL1        0.0268
     23 H           4.9064   -2.1595    0.0000 H       1  UNL1        0.0268
     24 H           4.5110    2.1244    0.0000 H       1  UNL1        0.0271
     25 H           4.2729    1.2850    0.0000 H       1  UNL1        0.0271
     26 H           6.9976   -1.3275    0.0000 H       1  UNL1        0.0315
     27 H           7.7865   -0.9167    0.0000 H       1  UNL1        0.0315
     28 H           2.7010   -2.2346    0.0000 H       1  UNL1        0.0268
     29 H           3.3886   -2.6984    0.0000 H       1  UNL1        0.0268
     30 H           6.2635    2.2990    0.0000 H       1  UNL1        0.0271
     31 H           5.4186    2.6458    0.0000 H       1  UNL1        0.0271
     32 H           5.4536   -1.3565    0.0000 H       1  UNL1        0.0235
     33 H           6.2130   -1.7949    0.0000 H       1  UNL1        0.0235
     34 H           6.6513   -1.0355    0.0000 H       1  UNL1        0.0235
     35 H           2.1699   -0.2804    0.0000 H       1  UNL1        0.0233
     36 H           1.4037   -0.7068    0.0000 H       1  UNL1        0.0233
     37 H           1.8301   -1.4729    0.0000 H       1  UNL1        0.0233
     38 H           8.8543    0.4170    0.0000 H       1  UNL1        0.0534
     39 H           8.3173    1.3470    0.0000 H       1  UNL1        0.0534
@<TRIPOS>BOND
     1     1     2    1
     2     1     3    1
     3     1     7    1
     4     1    16    1
     5     2     8    1
     6     2     9    1
     7     2    13    1
     8     3     4    1
     9     3     5    1
    10     3    17    1
    11     4    10    1
    12     4    14    1
    13     4    18    1
    14     5     6    1
    15     5    19    1
    16     5    20    1
    17     6    11    1
    18     6    12    1
    19     6    21    1
    20     7    10    1
    21     7    22    1
    22     7    23    1
    23     8    11    1
    24     8    24    1
    25     8    25    1
    26     9    12    1
    27     9    26    1
    28     9    27    1
    29    10    28    1
    30    10    29    1
    31    11    30    1
    32    11    31    1
    33    12    15    2
    34    13    32    1
    35    13    33    1
    36    13    34    1
    37    14    35    1
    38    14    36    1
    39    14    37    1
    40    15    38    1
    41    15    39    1
