@<TRIPOS>MOLECULE
IMPHY003963
 19 18 0 0 0
SMALL
GASTEIGER

@<TRIPOS>ATOM
      1 O           5.4641    0.5670    0.0000 O.co2   1  UNL1       -0.5444
      2 O           4.5981   -0.9330    0.0000 O.co2   1  UNL1       -0.5444
      3 N           2.8660    0.0670    0.0000 N.4     1  UNL1        0.2410
      4 C           3.7320    0.5670    0.0000 C.3     1  UNL1        0.0097
      5 C           2.0000   -0.4330    0.0000 C.3     1  UNL1       -0.0414
      6 C           2.3660    0.9330    0.0000 C.3     1  UNL1       -0.0414
      7 C           3.3660   -0.7990    0.0000 C.3     1  UNL1       -0.0414
      8 C           4.5981    0.0670    0.0000 C.2     1  UNL1        0.0864
      9 H           4.1306    1.0419    0.0000 H       1  UNL1        0.0879
     10 H           3.3335    1.0419    0.0000 H       1  UNL1        0.0879
     11 H           1.6900    0.1039    0.0000 H       1  UNL1        0.0778
     12 H           1.4631   -0.7430    0.0000 H       1  UNL1        0.0778
     13 H           2.3100   -0.9699    0.0000 H       1  UNL1        0.0778
     14 H           2.9030    1.2430    0.0000 H       1  UNL1        0.0778
     15 H           2.0560    1.4700    0.0000 H       1  UNL1        0.0778
     16 H           1.8291    0.6230    0.0000 H       1  UNL1        0.0778
     17 H           2.8291   -1.1090    0.0000 H       1  UNL1        0.0778
     18 H           3.6760   -1.3360    0.0000 H       1  UNL1        0.0778
     19 H           3.9030   -0.4890    0.0000 H       1  UNL1        0.0778
@<TRIPOS>UNITY_ATOM_ATTR
1 1
charge -1
3 1
charge 1
@<TRIPOS>BOND
     1     1     8   ar
     2     2     8   ar
     3     3     4    1
     4     3     5    1
     5     3     6    1
     6     3     7    1
     7     4     8    1
     8     4     9    1
     9     4    10    1
    10     5    11    1
    11     5    12    1
    12     5    13    1
    13     6    14    1
    14     6    15    1
    15     6    16    1
    16     7    17    1
    17     7    18    1
    18     7    19    1
