@<TRIPOS>MOLECULE
IMPHY010993
 38 41 0 0 0
SMALL
GASTEIGER

@<TRIPOS>ATOM
      1 O           6.4604   -0.3306    0.0000 O.3     1  UNL1       -0.3885
      2 O           2.8779   -2.4360    0.0000 O.3     1  UNL1       -0.3873
      3 O           6.4927   -2.4221    0.0000 O.3     1  UNL1       -0.3866
      4 O           4.6894   -3.4818    0.0000 O.3     1  UNL1       -0.3865
      5 O           2.0000    1.2180    0.0000 O.2     1  UNL1       -0.2701
      6 O           6.2392    2.8820    0.0000 O.3     1  UNL1       -0.4525
      7 O           4.8454    3.6867    0.0000 O.3     1  UNL1       -0.4489
      8 O           2.9042    2.7149    0.0000 O.3     1  UNL1       -0.5027
      9 N           2.8522   -0.3336    0.0000 N.am    1  UNL1       -0.3052
     10 C           4.6523   -0.3266    0.0000 C.3     1  UNL1        0.0345
     11 C           3.7542   -0.8544    0.0000 C.3     1  UNL1        0.0611
     12 C           5.6042   -0.8472    0.0000 C.3     1  UNL1        0.0921
     13 C           3.7459   -1.9393    0.0000 C.3     1  UNL1        0.1024
     14 C           5.6209   -1.9321    0.0000 C.3     1  UNL1        0.1099
     15 C           4.6855   -2.4818    0.0000 C.3     1  UNL1        0.1110
     16 C           4.6362    0.7149    0.0000 C.ar    1  UNL1       -0.0206
     17 C           3.7702    1.2149    0.0000 C.ar    1  UNL1        0.0855
     18 C           2.8602    0.7080    0.0000 C.2     1  UNL1        0.2483
     19 C           5.5022    1.2149    0.0000 C.ar    1  UNL1       -0.0116
     20 C           3.7702    2.2149    0.0000 C.ar    1  UNL1        0.1749
     21 C           5.5022    2.2149    0.0000 C.ar    1  UNL1        0.1702
     22 C           4.6362    2.7149    0.0000 C.ar    1  UNL1        0.2081
     23 C           5.8341    3.7898    0.0000 C.3     1  UNL1        0.2334
     24 H           5.3801    0.1125    0.0000 H       1  UNL1        0.0394
     25 H           3.0165   -1.2765    0.0000 H       1  UNL1        0.0531
     26 H           5.5911   -0.2274    0.0000 H       1  UNL1        0.0627
     27 H           3.2107   -1.6262    0.0000 H       1  UNL1        0.0639
     28 H           6.1536   -1.6149    0.0000 H       1  UNL1        0.0646
     29 H           4.1492   -2.7929    0.0000 H       1  UNL1        0.0646
     30 H           2.3140   -0.6415    0.0000 H       1  UNL1        0.1494
     31 H           6.0392    0.9049    0.0000 H       1  UNL1        0.0658
     32 H           7.0032   -0.6302    0.0000 H       1  UNL1        0.2099
     33 H           2.8755   -3.0560    0.0000 H       1  UNL1        0.2100
     34 H           6.4998   -3.0420    0.0000 H       1  UNL1        0.2100
     35 H           5.2275   -3.7898    0.0000 H       1  UNL1        0.2100
     36 H           6.4237    3.9815    0.0000 H       1  UNL1        0.1166
     37 H           5.7054    4.3962    0.0000 H       1  UNL1        0.1166
     38 H           2.9042    3.3349    0.0000 H       1  UNL1        0.2923
@<TRIPOS>BOND
     1    12     1    1
     2     1    32    1
     3    13     2    1
     4     2    33    1
     5    14     3    1
     6     3    34    1
     7    15     4    1
     8     4    35    1
     9     5    18    2
    10     6    21    1
    11     6    23    1
    12     7    22    1
    13     7    23    1
    14     8    20    1
    15     8    38    1
    16     9    11    1
    17     9    18   am
    18     9    30    1
    19    10    11    1
    20    10    12    1
    21    10    16    1
    22    10    24    1
    23    11    13    1
    24    11    25    1
    25    12    14    1
    26    12    26    1
    27    13    15    1
    28    13    27    1
    29    14    15    1
    30    14    28    1
    31    15    29    1
    32    16    17   ar
    33    16    19   ar
    34    17    18    1
    35    17    20   ar
    36    19    21   ar
    37    19    31    1
    38    20    22   ar
    39    21    22   ar
    40    23    36    1
    41    23    37    1
