@<TRIPOS>MOLECULE
IMPHY014625
 28 30 0 0 0
SMALL
GASTEIGER

@<TRIPOS>ATOM
      1 O           4.3198    0.9762    0.0000 O.3     1  UNL1       -0.5029
      2 O           5.1804    1.4731    0.0000 O.3     1  UNL1       -0.5060
      3 O           2.5381   -0.0342    0.0000 O.3     1  UNL1       -0.5033
      4 O           8.7202    1.4867    0.0000 O.3     1  UNL1       -0.5066
      5 C           5.2022   -0.5584    0.0000 C.ar    1  UNL1        0.0384
      6 C           6.0682   -0.0584    0.0000 C.ar    1  UNL1        0.0351
      7 C           6.9343   -0.5584    0.0000 C.ar    1  UNL1       -0.0102
      8 C           5.2022   -1.5584    0.0000 C.ar    1  UNL1       -0.0134
      9 C           4.3083   -0.0237    0.0000 C.ar    1  UNL1        0.1668
     10 C           6.9343   -1.5584    0.0000 C.ar    1  UNL1       -0.0532
     11 C           6.0682   -2.0584    0.0000 C.ar    1  UNL1       -0.0533
     12 C           6.0522    0.9831    0.0000 C.ar    1  UNL1        0.1287
     13 C           7.8443   -0.0515    0.0000 C.ar    1  UNL1       -0.0122
     14 C           4.3083   -2.0930    0.0000 C.ar    1  UNL1       -0.0503
     15 C           3.4022   -0.5376    0.0000 C.ar    1  UNL1        0.1589
     16 C           6.9502    1.5109    0.0000 C.ar    1  UNL1        0.0219
     17 C           7.8523    0.9901    0.0000 C.ar    1  UNL1        0.1209
     18 C           3.4022   -1.5792    0.0000 C.ar    1  UNL1       -0.0159
     19 H           7.4712   -1.8684    0.0000 H       1  UNL1        0.0624
     20 H           6.0682   -2.6784    0.0000 H       1  UNL1        0.0624
     21 H           8.3776   -0.3677    0.0000 H       1  UNL1        0.0660
     22 H           4.3154   -2.7130    0.0000 H       1  UNL1        0.0625
     23 H           6.9478    2.1309    0.0000 H       1  UNL1        0.0691
     24 H           2.8665   -1.8913    0.0000 H       1  UNL1        0.0655
     25 H           3.7865    1.2924    0.0000 H       1  UNL1        0.2923
     26 H           5.1733    2.0930    0.0000 H       1  UNL1        0.2922
     27 H           2.0000   -0.3422    0.0000 H       1  UNL1        0.2923
     28 H           9.2560    1.1747    0.0000 H       1  UNL1        0.2921
@<TRIPOS>BOND
     1     1     9    1
     2     1    25    1
     3     2    12    1
     4     2    26    1
     5     3    15    1
     6     3    27    1
     7     4    17    1
     8     4    28    1
     9     5     6   ar
    10     5     8   ar
    11     5     9   ar
    12     6     7   ar
    13     6    12   ar
    14     7    10   ar
    15     7    13   ar
    16     8    11   ar
    17     8    14   ar
    18     9    15   ar
    19    10    11   ar
    20    10    19    1
    21    11    20    1
    22    12    16   ar
    23    13    17   ar
    24    13    21    1
    25    14    18   ar
    26    14    22    1
    27    15    18   ar
    28    16    17   ar
    29    16    23    1
    30    18    24    1
