@<TRIPOS>MOLECULE
IMPHY012321
 55 55 0 0 0
SMALL
GASTEIGER

@<TRIPOS>ATOM
      1 O          10.8312   -0.6160    0.0000 O.3     1  UNL1       -0.3682
      2 O           2.5369    0.7500    0.0000 O.3     1  UNL1       -0.4806
      3 O           3.4030   -0.7500    0.0000 O.2     1  UNL1       -0.2510
      4 C          11.3312    0.2500    0.0000 C.3     1  UNL1        0.0852
      5 C          10.3312    0.2500    0.0000 C.3     1  UNL1        0.0852
      6 C          12.1972    0.7500    0.0000 C.3     1  UNL1       -0.0241
      7 C           9.4651    0.7500    0.0000 C.3     1  UNL1       -0.0241
      8 C          13.0632    0.2500    0.0000 C.3     1  UNL1       -0.0506
      9 C           8.5991    0.2500    0.0000 C.3     1  UNL1       -0.0506
     10 C          13.9292    0.7500    0.0000 C.3     1  UNL1       -0.0530
     11 C           7.7331    0.7500    0.0000 C.3     1  UNL1       -0.0530
     12 C          14.7953    0.2500    0.0000 C.3     1  UNL1       -0.0531
     13 C           6.8671    0.2500    0.0000 C.3     1  UNL1       -0.0530
     14 C          15.6613    0.7500    0.0000 C.3     1  UNL1       -0.0531
     15 C           6.0010    0.7500    0.0000 C.3     1  UNL1       -0.0526
     16 C          16.5273    0.2500    0.0000 C.3     1  UNL1       -0.0533
     17 C           5.1350    0.2500    0.0000 C.3     1  UNL1       -0.0430
     18 C          17.3933    0.7500    0.0000 C.3     1  UNL1       -0.0559
     19 C           4.2690    0.7500    0.0000 C.3     1  UNL1        0.0448
     20 C          18.2594    0.2500    0.0000 C.3     1  UNL1       -0.0653
     21 C           3.4030    0.2500    0.0000 C.2     1  UNL1        0.3047
     22 H          11.7696   -0.1884    0.0000 H       1  UNL1        0.0622
     23 H           9.8928   -0.1884    0.0000 H       1  UNL1        0.0622
     24 H          12.5957    1.2250    0.0000 H       1  UNL1        0.0291
     25 H          11.7987    1.2250    0.0000 H       1  UNL1        0.0291
     26 H           9.8637    1.2250    0.0000 H       1  UNL1        0.0291
     27 H           9.0666    1.2250    0.0000 H       1  UNL1        0.0291
     28 H          12.6647   -0.2249    0.0000 H       1  UNL1        0.0266
     29 H          13.4617   -0.2249    0.0000 H       1  UNL1        0.0266
     30 H           8.2006   -0.2249    0.0000 H       1  UNL1        0.0266
     31 H           8.9976   -0.2249    0.0000 H       1  UNL1        0.0266
     32 H          14.3278    1.2250    0.0000 H       1  UNL1        0.0265
     33 H          13.5307    1.2250    0.0000 H       1  UNL1        0.0265
     34 H           8.1316    1.2250    0.0000 H       1  UNL1        0.0265
     35 H           7.3346    1.2250    0.0000 H       1  UNL1        0.0265
     36 H          14.3967   -0.2249    0.0000 H       1  UNL1        0.0265
     37 H          15.1938   -0.2249    0.0000 H       1  UNL1        0.0265
     38 H           6.4685   -0.2249    0.0000 H       1  UNL1        0.0265
     39 H           7.2656   -0.2249    0.0000 H       1  UNL1        0.0265
     40 H          16.0598    1.2250    0.0000 H       1  UNL1        0.0265
     41 H          15.2628    1.2250    0.0000 H       1  UNL1        0.0265
     42 H           6.3996    1.2250    0.0000 H       1  UNL1        0.0265
     43 H           5.6025    1.2250    0.0000 H       1  UNL1        0.0265
     44 H          16.1288   -0.2249    0.0000 H       1  UNL1        0.0265
     45 H          16.9258   -0.2249    0.0000 H       1  UNL1        0.0265
     46 H           4.7365   -0.2249    0.0000 H       1  UNL1        0.0270
     47 H           5.5335   -0.2249    0.0000 H       1  UNL1        0.0270
     48 H          17.7919    1.2250    0.0000 H       1  UNL1        0.0263
     49 H          16.9948    1.2250    0.0000 H       1  UNL1        0.0263
     50 H           4.6675    1.2250    0.0000 H       1  UNL1        0.0377
     51 H           3.8705    1.2250    0.0000 H       1  UNL1        0.0377
     52 H          17.9494   -0.2869    0.0000 H       1  UNL1        0.0230
     53 H          18.7963   -0.0600    0.0000 H       1  UNL1        0.0230
     54 H          18.5694    0.7869    0.0000 H       1  UNL1        0.0230
     55 H           2.0000    0.4400    0.0000 H       1  UNL1        0.2951
@<TRIPOS>BOND
     1     1     4    1
     2     1     5    1
     3     2    21    1
     4     2    55    1
     5     3    21    2
     6     4     5    1
     7     4     6    1
     8     4    22    1
     9     5     7    1
    10     5    23    1
    11     6     8    1
    12     6    24    1
    13     6    25    1
    14     7     9    1
    15     7    26    1
    16     7    27    1
    17     8    10    1
    18     8    28    1
    19     8    29    1
    20     9    11    1
    21     9    30    1
    22     9    31    1
    23    10    12    1
    24    10    32    1
    25    10    33    1
    26    11    13    1
    27    11    34    1
    28    11    35    1
    29    12    14    1
    30    12    36    1
    31    12    37    1
    32    13    15    1
    33    13    38    1
    34    13    39    1
    35    14    16    1
    36    14    40    1
    37    14    41    1
    38    15    17    1
    39    15    42    1
    40    15    43    1
    41    16    18    1
    42    16    44    1
    43    16    45    1
    44    17    19    1
    45    17    46    1
    46    17    47    1
    47    18    20    1
    48    18    48    1
    49    18    49    1
    50    19    21    1
    51    19    50    1
    52    19    51    1
    53    20    52    1
    54    20    53    1
    55    20    54    1
