@<TRIPOS>MOLECULE
IMPHY007293
 27 28 0 0 0
SMALL
GASTEIGER

@<TRIPOS>ATOM
      1 O           2.7056   -1.9307    0.0000 O.3     1  UNL1       -0.4594
      2 O           2.0000   -0.2139    0.0000 O.2     1  UNL1       -0.2500
      3 C           3.7139   -0.9266    0.0000 C.3     1  UNL1        0.1151
      4 C           3.7139   -1.9266    0.0000 C.3     1  UNL1        0.1233
      5 C           4.6650   -2.2356    0.0000 C.3     1  UNL1        0.0067
      6 C           4.6650   -0.6176    0.0000 C.2     1  UNL1       -0.0496
      7 C           5.2528   -1.4266    0.0000 C.2     1  UNL1       -0.0687
      8 C           2.7056   -0.9224    0.0000 C.2     1  UNL1        0.3182
      9 C           4.9740    0.3335    0.0000 C.3     1  UNL1       -0.0124
     10 C           6.2528   -1.4266    0.0000 C.3     1  UNL1       -0.0434
     11 C           5.9521    0.5414    0.0000 C.2     1  UNL1       -0.0842
     12 C           6.2612    1.4925    0.0000 C.2     1  UNL1       -0.0907
     13 C           5.5920    2.2356    0.0000 C.3     1  UNL1       -0.0468
     14 H           3.6182   -0.3140    0.0000 H       1  UNL1        0.0496
     15 H           3.6182   -2.5391    0.0000 H       1  UNL1        0.0748
     16 H           4.4128   -2.8020    0.0000 H       1  UNL1        0.0346
     17 H           5.2019   -2.5456    0.0000 H       1  UNL1        0.0346
     18 H           4.9524    0.9531    0.0000 H       1  UNL1        0.0353
     19 H           4.3600    0.4198    0.0000 H       1  UNL1        0.0353
     20 H           6.2528   -2.0466    0.0000 H       1  UNL1        0.0274
     21 H           6.8728   -1.4266    0.0000 H       1  UNL1        0.0274
     22 H           6.2528   -0.8066    0.0000 H       1  UNL1        0.0274
     23 H           6.3670    0.0807    0.0000 H       1  UNL1        0.0572
     24 H           6.8676    1.6214    0.0000 H       1  UNL1        0.0566
     25 H           6.0528    2.6505    0.0000 H       1  UNL1        0.0272
     26 H           5.1772    2.6963    0.0000 H       1  UNL1        0.0272
     27 H           5.1313    1.8207    0.0000 H       1  UNL1        0.0272
@<TRIPOS>BOND
     1     1     4    1
     2     1     8    1
     3     2     8    2
     4     3     4    1
     5     3     6    1
     6     3     8    1
     7     3    14    1
     8     4     5    1
     9     4    15    1
    10     5     7    1
    11     5    16    1
    12     5    17    1
    13     6     7    2
    14     6     9    1
    15     7    10    1
    16     9    11    1
    17     9    18    1
    18     9    19    1
    19    10    20    1
    20    10    21    1
    21    10    22    1
    22    11    12    2
    23    11    23    1
    24    12    13    1
    25    12    24    1
    26    13    25    1
    27    13    26    1
    28    13    27    1
