@<TRIPOS>MOLECULE
IMPHY004591
 37 39 0 0 0
SMALL
GASTEIGER

@<TRIPOS>ATOM
      1 O           8.1301   -0.9254    0.0000 O.2     1  UNL1       -0.4544
      2 O           4.6000   -0.9495    0.0000 O.3     1  UNL1       -0.4877
      3 O           6.3817    2.1092    0.0000 O.3     1  UNL1       -0.5058
      4 O           8.1301    2.0746    0.0000 O.2     1  UNL1       -0.2869
      5 O          12.4602   -2.4254    0.0000 O.3     1  UNL1       -0.5068
      6 C           7.2641    0.5746    0.0000 C.ar    1  UNL1        0.1055
      7 C           7.2641   -0.4254    0.0000 C.ar    1  UNL1        0.1462
      8 C           8.9961   -0.4254    0.0000 C.ar    1  UNL1        0.1392
      9 C           8.1301    1.0746    0.0000 C.ar    1  UNL1        0.1966
     10 C           6.3701    1.1093    0.0000 C.ar    1  UNL1        0.1347
     11 C           6.3701   -0.9601    0.0000 C.ar    1  UNL1        0.0234
     12 C           9.8622   -0.9254    0.0000 C.ar    1  UNL1        0.0176
     13 C           8.9961    0.5746    0.0000 C.ar    1  UNL1        0.0288
     14 C           5.4641   -0.4462    0.0000 C.ar    1  UNL1        0.1280
     15 C           5.4641    0.5954    0.0000 C.ar    1  UNL1        0.0225
     16 C           9.8622   -1.9254    0.0000 C.ar    1  UNL1       -0.0476
     17 C          10.7282   -0.4254    0.0000 C.ar    1  UNL1       -0.0476
     18 C          10.7282   -2.4254    0.0000 C.ar    1  UNL1       -0.0195
     19 C          11.5942   -0.9254    0.0000 C.ar    1  UNL1       -0.0195
     20 C          11.5942   -1.9254    0.0000 C.ar    1  UNL1        0.1169
     21 C           3.7320   -0.4529    0.0000 C.3     1  UNL1        0.1076
     22 C           2.8680   -0.9562    0.0000 C.2     1  UNL1       -0.0542
     23 C           2.0000   -0.4596    0.0000 C.2     1  UNL1       -0.0995
     24 H           6.3773   -1.5800    0.0000 H       1  UNL1        0.0691
     25 H           9.5331    0.8846    0.0000 H       1  UNL1        0.0693
     26 H           4.9283    0.9075    0.0000 H       1  UNL1        0.0691
     27 H           9.3252   -2.2354    0.0000 H       1  UNL1        0.0626
     28 H          10.7282    0.1946    0.0000 H       1  UNL1        0.0626
     29 H          10.7282   -3.0454    0.0000 H       1  UNL1        0.0654
     30 H          12.1311   -0.6154    0.0000 H       1  UNL1        0.0654
     31 H           4.1287    0.0236    0.0000 H       1  UNL1        0.0742
     32 H           3.3317    0.0205    0.0000 H       1  UNL1        0.0742
     33 H           5.8484    2.4254    0.0000 H       1  UNL1        0.2922
     34 H           2.8703   -1.5762    0.0000 H       1  UNL1        0.0600
     35 H          12.9972   -2.1154    0.0000 H       1  UNL1        0.2921
     36 H           1.9976    0.1604    0.0000 H       1  UNL1        0.0533
     37 H           1.4643   -0.7716    0.0000 H       1  UNL1        0.0533
@<TRIPOS>BOND
     1     1     7   ar
     2     1     8   ar
     3     2    14    1
     4     2    21    1
     5     3    10    1
     6     3    33    1
     7     4     9    2
     8     5    20    1
     9     5    35    1
    10     6     7   ar
    11     6     9   ar
    12     6    10   ar
    13     7    11   ar
    14     8    12    1
    15     8    13   ar
    16     9    13   ar
    17    10    15   ar
    18    11    14   ar
    19    11    24    1
    20    12    16   ar
    21    12    17   ar
    22    13    25    1
    23    14    15   ar
    24    15    26    1
    25    16    18   ar
    26    16    27    1
    27    17    19   ar
    28    17    28    1
    29    18    20   ar
    30    18    29    1
    31    19    20   ar
    32    19    30    1
    33    21    22    1
    34    21    31    1
    35    21    32    1
    36    22    23    2
    37    22    34    1
    38    23    36    1
    39    23    37    1
