@<TRIPOS>MOLECULE
IMPHY003076
 55 57 0 0 0
SMALL
GASTEIGER

@<TRIPOS>ATOM
      1 O           6.3580   -0.2693    0.0000 O.2     1  UNL1       -0.4542
      2 O           4.5981    2.7654    0.0000 O.3     1  UNL1       -0.4905
      3 O           7.2564   -1.7554    0.0000 O.3     1  UNL1       -0.4906
      4 O           2.8660    1.7654    0.0000 O.3     1  UNL1       -0.4885
      5 O           8.9846   -2.7621    0.0000 O.3     1  UNL1       -0.4884
      6 O           2.8660   -0.2346    0.0000 O.3     1  UNL1       -0.4912
      7 O          10.7282    0.2312    0.0000 O.3     1  UNL1       -0.4913
      8 O          10.7205   -1.7688    0.0000 O.3     1  UNL1       -0.4884
      9 O           6.3465    2.8000    0.0000 O.2     1  UNL1       -0.2869
     10 C           5.4641    1.2654    0.0000 C.ar    1  UNL1        0.1093
     11 C           8.1282   -0.2587    0.0000 C.ar    1  UNL1        0.0663
     12 C           7.2641    0.2446    0.0000 C.ar    1  UNL1        0.1430
     13 C           5.4641    0.2654    0.0000 C.ar    1  UNL1        0.1465
     14 C           4.5981    1.7654    0.0000 C.ar    1  UNL1        0.1795
     15 C           8.1244   -1.2587    0.0000 C.ar    1  UNL1        0.1761
     16 C           6.3580    1.8001    0.0000 C.ar    1  UNL1        0.1967
     17 C           7.2641    1.2862    0.0000 C.ar    1  UNL1        0.0289
     18 C           4.5981   -0.2346    0.0000 C.ar    1  UNL1        0.0270
     19 C           8.9962    0.2379    0.0000 C.ar    1  UNL1       -0.0019
     20 C           3.7320    1.2654    0.0000 C.ar    1  UNL1        0.2045
     21 C           3.7320    0.2654    0.0000 C.ar    1  UNL1        0.1687
     22 C           8.9884   -1.7621    0.0000 C.ar    1  UNL1        0.2080
     23 C           9.8602   -0.2654    0.0000 C.ar    1  UNL1        0.1661
     24 C           9.8564   -1.2654    0.0000 C.ar    1  UNL1        0.2073
     25 C           3.7320    3.2654    0.0000 C.3     1  UNL1        0.0790
     26 C           7.2526   -2.7554    0.0000 C.3     1  UNL1        0.0790
     27 C           2.0000    1.2654    0.0000 C.3     1  UNL1        0.0791
     28 C           9.8487   -3.2654    0.0000 C.3     1  UNL1        0.0791
     29 C           2.8660   -1.2346    0.0000 C.3     1  UNL1        0.0790
     30 C          10.7320    1.2312    0.0000 C.3     1  UNL1        0.0790
     31 C          11.5884   -1.2721    0.0000 C.3     1  UNL1        0.0791
     32 H           7.7998    1.5983    0.0000 H       1  UNL1        0.0693
     33 H           4.5981   -0.8546    0.0000 H       1  UNL1        0.0692
     34 H           8.9985    0.8579    0.0000 H       1  UNL1        0.0663
     35 H           4.0420    3.8023    0.0000 H       1  UNL1        0.0660
     36 H           3.1951    3.5754    0.0000 H       1  UNL1        0.0660
     37 H           3.4220    2.7285    0.0000 H       1  UNL1        0.0660
     38 H           6.6326   -2.7530    0.0000 H       1  UNL1        0.0660
     39 H           7.2502   -3.3754    0.0000 H       1  UNL1        0.0660
     40 H           7.8725   -2.7578    0.0000 H       1  UNL1        0.0660
     41 H           1.6900    1.8023    0.0000 H       1  UNL1        0.0660
     42 H           1.4631    0.9554    0.0000 H       1  UNL1        0.0660
     43 H           2.3100    0.7285    0.0000 H       1  UNL1        0.0660
     44 H           9.5366   -3.8011    0.0000 H       1  UNL1        0.0660
     45 H          10.3844   -3.5775    0.0000 H       1  UNL1        0.0660
     46 H          10.1607   -2.7297    0.0000 H       1  UNL1        0.0660
     47 H           2.2460   -1.2346    0.0000 H       1  UNL1        0.0660
     48 H           2.8660   -1.8546    0.0000 H       1  UNL1        0.0660
     49 H           3.4860   -1.2346    0.0000 H       1  UNL1        0.0660
     50 H          11.3520    1.2288    0.0000 H       1  UNL1        0.0660
     51 H          10.7344    1.8512    0.0000 H       1  UNL1        0.0660
     52 H          10.1120    1.2336    0.0000 H       1  UNL1        0.0660
     53 H          11.8964   -1.8102    0.0000 H       1  UNL1        0.0660
     54 H          12.1266   -0.9642    0.0000 H       1  UNL1        0.0660
     55 H          11.2805   -0.7340    0.0000 H       1  UNL1        0.0660
@<TRIPOS>BOND
     1     1    12   ar
     2     1    13   ar
     3     2    14    1
     4     2    25    1
     5     3    15    1
     6     3    26    1
     7     4    20    1
     8     4    27    1
     9     5    22    1
    10     5    28    1
    11     6    21    1
    12     6    29    1
    13     7    23    1
    14     7    30    1
    15     8    24    1
    16     8    31    1
    17     9    16    2
    18    10    13   ar
    19    10    14   ar
    20    10    16   ar
    21    11    12    1
    22    11    15   ar
    23    11    19   ar
    24    12    17   ar
    25    13    18   ar
    26    14    20   ar
    27    15    22   ar
    28    16    17   ar
    29    17    32    1
    30    18    21   ar
    31    18    33    1
    32    19    23   ar
    33    19    34    1
    34    20    21   ar
    35    22    24   ar
    36    23    24   ar
    37    25    35    1
    38    25    36    1
    39    25    37    1
    40    26    38    1
    41    26    39    1
    42    26    40    1
    43    27    41    1
    44    27    42    1
    45    27    43    1
    46    28    44    1
    47    28    45    1
    48    28    46    1
    49    29    47    1
    50    29    48    1
    51    29    49    1
    52    30    50    1
    53    30    51    1
    54    30    52    1
    55    31    53    1
    56    31    54    1
    57    31    55    1
