@<TRIPOS>MOLECULE
IMPHY002972
 83 88 0 0 0
SMALL
GASTEIGER

@<TRIPOS>ATOM
      1 O          11.3900    2.3583    0.0000 O.3     1  UNL1       -0.3876
      2 O          13.9141    0.8485    0.0000 O.3     1  UNL1       -0.4628
      3 O           6.0010    3.4314    0.0000 O.3     1  UNL1       -0.3480
      4 O          13.5826   -2.2128    0.0000 O.3     1  UNL1       -0.4571
      5 O           4.2690    3.4314    0.0000 O.3     1  UNL1       -0.3456
      6 O          12.3199   -3.4702    0.0000 O.2     1  UNL1       -0.2456
      7 O          15.4174    1.7088    0.0000 O.2     1  UNL1       -0.2546
      8 O           4.2690    0.4314    0.0000 O.3     1  UNL1       -0.3890
      9 O           2.5369    1.4314    0.0000 O.3     1  UNL1       -0.3867
     10 C          11.3862    1.3583    0.0000 C.3     1  UNL1        0.0785
     11 C          10.5221    1.8616    0.0000 C.3     1  UNL1       -0.0081
     12 C          11.3823    0.3583    0.0000 C.3     1  UNL1        0.0071
     13 C           9.6541    1.3649    0.0000 C.3     1  UNL1       -0.0299
     14 C           8.7461    1.8753    0.0000 C.3     1  UNL1       -0.0259
     15 C           8.7421    2.9169    0.0000 C.3     1  UNL1       -0.0330
     16 C          12.3274    0.0499    0.0000 C.3     1  UNL1        0.0290
     17 C          10.5144   -0.1384    0.0000 C.3     1  UNL1       -0.0441
     18 C           9.6503    0.3650    0.0000 C.3     1  UNL1       -0.0488
     19 C          12.3336    1.6594    0.0000 C.3     1  UNL1        0.0146
     20 C          10.5422    2.9030    0.0000 C.3     1  UNL1       -0.0470
     21 C          12.9141    0.8524    0.0000 C.3     1  UNL1        0.1126
     22 C           9.6462    3.4342    0.0000 C.3     1  UNL1       -0.0493
     23 C           7.8171    1.3148    0.0000 C.3     1  UNL1       -0.0448
     24 C          11.3785   -0.6417    0.0000 C.3     1  UNL1       -0.0563
     25 C           7.8088    3.4702    0.0000 C.3     1  UNL1       -0.0232
     26 C           8.7500    0.8753    0.0000 C.3     1  UNL1       -0.0590
     27 C           6.8712    1.8464    0.0000 C.3     1  UNL1       -0.0260
     28 C           6.8671    2.9314    0.0000 C.3     1  UNL1        0.0620
     29 C          12.6344   -0.9018    0.0000 C.2     1  UNL1       -0.0187
     30 C          13.5847   -1.2128    0.0000 C.3     1  UNL1        0.1148
     31 C          12.0448   -1.7096    0.0000 C.2     1  UNL1        0.0253
     32 C          12.6309   -2.5198    0.0000 C.2     1  UNL1        0.3323
     33 C          14.4174    1.7126    0.0000 C.2     1  UNL1        0.2945
     34 C           5.1350    2.9314    0.0000 C.3     1  UNL1        0.1624
     35 C           5.1350    1.9314    0.0000 C.3     1  UNL1        0.0270
     36 C           4.2690    1.4314    0.0000 C.3     1  UNL1        0.0881
     37 C           3.4030    2.9314    0.0000 C.3     1  UNL1        0.0871
     38 C           3.4030    1.9314    0.0000 C.3     1  UNL1        0.1070
     39 C           2.5369    3.4314    0.0000 C.3     1  UNL1       -0.0361
     40 H          11.2631    2.2781    0.0000 H       1  UNL1        0.0331
     41 H          10.3886    0.9371    0.0000 H       1  UNL1        0.0310
     42 H           8.7486    3.7669    0.0000 H       1  UNL1        0.0307
     43 H          12.9395   -0.0487    0.0000 H       1  UNL1        0.0389
     44 H          10.1140   -0.6118    0.0000 H       1  UNL1        0.0272
     45 H          10.9111   -0.6149    0.0000 H       1  UNL1        0.0272
     46 H           9.0401    0.4750    0.0000 H       1  UNL1        0.0268
     47 H           9.4360   -0.2168    0.0000 H       1  UNL1        0.0268
     48 H          12.8721    1.9665    0.0000 H       1  UNL1        0.0329
     49 H          12.0847    2.2272    0.0000 H       1  UNL1        0.0329
     50 H          11.1509    2.7852    0.0000 H       1  UNL1        0.0269
     51 H          10.7624    3.4826    0.0000 H       1  UNL1        0.0269
     52 H          13.3032    1.6081    0.0000 H       1  UNL1        0.0741
     53 H          10.0489    3.9056    0.0000 H       1  UNL1        0.0268
     54 H           9.2507    3.9118    0.0000 H       1  UNL1        0.0268
     55 H           7.4253    0.8343    0.0000 H       1  UNL1        0.0271
     56 H           8.2235    0.8466    0.0000 H       1  UNL1        0.0271
     57 H          10.7585   -0.6393    0.0000 H       1  UNL1        0.0236
     58 H          11.3761   -1.2617    0.0000 H       1  UNL1        0.0236
     59 H          11.9985   -0.6441    0.0000 H       1  UNL1        0.0236
     60 H           8.2116    3.9416    0.0000 H       1  UNL1        0.0293
     61 H           7.4133    3.9477    0.0000 H       1  UNL1        0.0293
     62 H           8.1299    0.8729    0.0000 H       1  UNL1        0.0235
     63 H           8.7523    0.2553    0.0000 H       1  UNL1        0.0235
     64 H           9.3699    0.8777    0.0000 H       1  UNL1        0.0235
     65 H           6.2600    1.9501    0.0000 H       1  UNL1        0.0290
     66 H           6.6644    1.2619    0.0000 H       1  UNL1        0.0290
     67 H           6.8683    3.5514    0.0000 H       1  UNL1        0.0597
     68 H          11.9282    2.6662    0.0000 H       1  UNL1        0.2102
     69 H          14.2012   -1.2790    0.0000 H       1  UNL1        0.0746
     70 H          13.7149   -0.6067    0.0000 H       1  UNL1        0.0746
     71 H          11.4248   -1.7083    0.0000 H       1  UNL1        0.0690
     72 H          14.1095    2.2507    0.0000 H       1  UNL1        0.1512
     73 H           5.1350    3.5514    0.0000 H       1  UNL1        0.0910
     74 H           5.3471    1.3488    0.0000 H       1  UNL1        0.0340
     75 H           5.7456    2.0390    0.0000 H       1  UNL1        0.0340
     76 H           5.0051    1.0064    0.0000 H       1  UNL1        0.0621
     77 H           3.4030    3.7814    0.0000 H       1  UNL1        0.0621
     78 H           3.4030    1.3114    0.0000 H       1  UNL1        0.0645
     79 H           2.8469    3.9683    0.0000 H       1  UNL1        0.0255
     80 H           2.0000    3.7414    0.0000 H       1  UNL1        0.0255
     81 H           2.2269    2.8944    0.0000 H       1  UNL1        0.0255
     82 H           3.7320    0.1214    0.0000 H       1  UNL1        0.2099
     83 H           2.0000    1.7414    0.0000 H       1  UNL1        0.2100
@<TRIPOS>BOND
     1    10     1    1
     2     1    68    1
     3     2    21    1
     4     2    33    1
     5    28     3    1
     6    34     3    1
     7     4    30    1
     8     4    32    1
     9     5    34    1
    10     5    37    1
    11     6    32    2
    12     7    33    2
    13     8    36    1
    14     8    82    1
    15    38     9    1
    16     9    83    1
    17    10    11    1
    18    10    12    1
    19    10    19    1
    20    11    13    1
    21    11    20    1
    22    11    40    1
    23    12    16    1
    24    12    17    1
    25    12    24    1
    26    13    14    1
    27    13    18    1
    28    13    41    1
    29    14    15    1
    30    14    23    1
    31    14    26    1
    32    15    22    1
    33    15    25    1
    34    15    42    1
    35    16    21    1
    36    16    29    1
    37    16    43    1
    38    17    18    1
    39    17    44    1
    40    17    45    1
    41    18    46    1
    42    18    47    1
    43    19    21    1
    44    19    48    1
    45    19    49    1
    46    20    22    1
    47    20    50    1
    48    20    51    1
    49    21    52    1
    50    22    53    1
    51    22    54    1
    52    23    27    1
    53    23    55    1
    54    23    56    1
    55    24    57    1
    56    24    58    1
    57    24    59    1
    58    25    28    1
    59    25    60    1
    60    25    61    1
    61    26    62    1
    62    26    63    1
    63    26    64    1
    64    27    28    1
    65    27    65    1
    66    27    66    1
    67    28    67    1
    68    29    30    1
    69    29    31    2
    70    30    69    1
    71    30    70    1
    72    31    32    1
    73    31    71    1
    74    33    72    1
    75    34    35    1
    76    34    73    1
    77    35    36    1
    78    35    74    1
    79    35    75    1
    80    36    38    1
    81    36    76    1
    82    37    38    1
    83    37    39    1
    84    37    77    1
    85    38    78    1
    86    39    79    1
    87    39    80    1
    88    39    81    1
