@<TRIPOS>MOLECULE
IMPHY016797
 19 19 0 0 0
SMALL
GASTEIGER

@<TRIPOS>ATOM
      1 C           2.8660   -1.2500    0.0000 C.ar    1  UNL1       -0.0504
      2 C           2.8660    0.7500    0.0000 C.ar    1  UNL1       -0.0256
      3 C           3.7320   -0.7500    0.0000 C.ar    1  UNL1       -0.0583
      4 C           2.0000   -0.7500    0.0000 C.ar    1  UNL1       -0.0583
      5 C           3.7320    0.2500    0.0000 C.ar    1  UNL1       -0.0544
      6 C           2.0000    0.2500    0.0000 C.ar    1  UNL1       -0.0544
      7 C           2.8660   -2.2500    0.0000 C.3     1  UNL1       -0.0397
      8 C           2.8660    1.7500    0.0000 C.2     1  UNL1       -0.0617
      9 C           3.7320    2.2500    0.0000 C.2     1  UNL1       -0.0981
     10 H           4.2690   -1.0600    0.0000 H       1  UNL1        0.0620
     11 H           1.4631   -1.0600    0.0000 H       1  UNL1        0.0620
     12 H           4.2690    0.5600    0.0000 H       1  UNL1        0.0624
     13 H           1.4631    0.5600    0.0000 H       1  UNL1        0.0624
     14 H           2.2460   -2.2500    0.0000 H       1  UNL1        0.0278
     15 H           2.8660   -2.8700    0.0000 H       1  UNL1        0.0278
     16 H           3.4860   -2.2500    0.0000 H       1  UNL1        0.0278
     17 H           2.3291    2.0600    0.0000 H       1  UNL1        0.0618
     18 H           4.2690    1.9400    0.0000 H       1  UNL1        0.0535
     19 H           3.7320    2.8700    0.0000 H       1  UNL1        0.0535
@<TRIPOS>BOND
     1     1     3   ar
     2     1     4   ar
     3     1     7    1
     4     2     5   ar
     5     2     6   ar
     6     2     8    1
     7     3     5   ar
     8     3    10    1
     9     4     6   ar
    10     4    11    1
    11     5    12    1
    12     6    13    1
    13     7    14    1
    14     7    15    1
    15     7    16    1
    16     8     9    2
    17     8    17    1
    18     9    18    1
    19     9    19    1
