@<TRIPOS>MOLECULE
IMPHY007879
 33 36 0 0 0
SMALL
GASTEIGER

@<TRIPOS>ATOM
      1 O           6.3624   -0.6126    0.0000 O.2     1  UNL1       -0.4507
      2 O           9.9346    1.2268    0.0000 O.3     1  UNL1       -0.4489
      3 O           9.9346   -0.3827    0.0000 O.3     1  UNL1       -0.4523
      4 O           8.1224    2.4221    0.0000 O.3     1  UNL1       -0.5027
      5 O           4.5923    1.4462    0.0000 O.3     1  UNL1       -0.5007
      6 O           6.3740    2.4567    0.0000 O.2     1  UNL1       -0.2830
      7 O           2.0000   -2.1121    0.0000 O.3     1  UNL1       -0.5068
      8 C           7.2564    0.9221    0.0000 C.ar    1  UNL1        0.1128
      9 C           7.2564   -0.0779    0.0000 C.ar    1  UNL1        0.1468
     10 C           8.9884    0.9221    0.0000 C.ar    1  UNL1        0.2083
     11 C           8.9884   -0.0779    0.0000 C.ar    1  UNL1        0.1734
     12 C           8.1224    1.4221    0.0000 C.ar    1  UNL1        0.1771
     13 C           8.1224   -0.5779    0.0000 C.ar    1  UNL1        0.0272
     14 C           5.4564   -0.0987    0.0000 C.ar    1  UNL1        0.1806
     15 C           6.3624    1.4567    0.0000 C.ar    1  UNL1        0.2380
     16 C           5.4564    0.9429    0.0000 C.ar    1  UNL1        0.2082
     17 C           4.5923   -0.6021    0.0000 C.ar    1  UNL1        0.0213
     18 C          10.5183    0.4221    0.0000 C.3     1  UNL1        0.2334
     19 C           3.7243   -0.1054    0.0000 C.ar    1  UNL1       -0.0475
     20 C           4.5961   -1.6021    0.0000 C.ar    1  UNL1       -0.0475
     21 C           2.8602   -0.6088    0.0000 C.ar    1  UNL1       -0.0195
     22 C           3.7320   -2.1054    0.0000 C.ar    1  UNL1       -0.0195
     23 C           2.8641   -1.6087    0.0000 C.ar    1  UNL1        0.1169
     24 H           8.1224   -1.1979    0.0000 H       1  UNL1        0.0692
     25 H          10.9791    0.0073    0.0000 H       1  UNL1        0.1166
     26 H          10.9791    0.8368    0.0000 H       1  UNL1        0.1166
     27 H           3.7219    0.5146    0.0000 H       1  UNL1        0.0626
     28 H           5.1343   -1.9100    0.0000 H       1  UNL1        0.0626
     29 H           8.6593    2.7321    0.0000 H       1  UNL1        0.2923
     30 H           2.3221   -0.3008    0.0000 H       1  UNL1        0.0654
     31 H           3.7344   -2.7254    0.0000 H       1  UNL1        0.0654
     32 H           4.5947    2.0662    0.0000 H       1  UNL1        0.2924
     33 H           2.0024   -2.7321    0.0000 H       1  UNL1        0.2921
@<TRIPOS>BOND
     1     1     9   ar
     2     1    14   ar
     3     2    10    1
     4     2    18    1
     5     3    11    1
     6     3    18    1
     7     4    12    1
     8     4    29    1
     9     5    16    1
    10     5    32    1
    11     6    15    2
    12     7    23    1
    13     7    33    1
    14     8     9   ar
    15     8    12   ar
    16     8    15   ar
    17     9    13   ar
    18    10    11   ar
    19    10    12   ar
    20    11    13   ar
    21    13    24    1
    22    14    16   ar
    23    14    17    1
    24    15    16   ar
    25    17    19   ar
    26    17    20   ar
    27    18    25    1
    28    18    26    1
    29    19    21   ar
    30    19    27    1
    31    20    22   ar
    32    20    28    1
    33    21    23   ar
    34    21    30    1
    35    22    23   ar
    36    22    31    1
