@<TRIPOS>MOLECULE
IMPHY004913
 55 54 0 0 0
SMALL
GASTEIGER

@<TRIPOS>ATOM
      1 O           3.4030   -3.7500    0.0000 O.2     1  UNL1       -0.2760
      2 N           2.5369   -2.2500    0.0000 N.am    1  UNL1       -0.3293
      3 C          12.9292    0.7500    0.0000 C.3     1  UNL1       -0.0530
      4 C          12.0632    0.2500    0.0000 C.3     1  UNL1       -0.0528
      5 C           7.7331   -2.2500    0.0000 C.3     1  UNL1       -0.0528
      6 C           6.8671   -2.7500    0.0000 C.3     1  UNL1       -0.0530
      7 C          12.9292    1.7500    0.0000 C.3     1  UNL1       -0.0531
      8 C          12.0632   -0.7500    0.0000 C.3     1  UNL1       -0.0496
      9 C           8.5991   -2.7500    0.0000 C.3     1  UNL1       -0.0496
     10 C           6.0010   -2.2500    0.0000 C.3     1  UNL1       -0.0526
     11 C          13.7953    2.2500    0.0000 C.3     1  UNL1       -0.0533
     12 C          11.1972   -1.2500    0.0000 C.3     1  UNL1       -0.0348
     13 C           9.4651   -2.2500    0.0000 C.3     1  UNL1       -0.0348
     14 C           5.1350   -2.7500    0.0000 C.3     1  UNL1       -0.0448
     15 C          13.7953    3.2500    0.0000 C.3     1  UNL1       -0.0559
     16 C          11.1972   -2.2500    0.0000 C.2     1  UNL1       -0.0879
     17 C          10.3312   -2.7500    0.0000 C.2     1  UNL1       -0.0879
     18 C           4.2690   -2.2500    0.0000 C.3     1  UNL1        0.0237
     19 C          14.6613    3.7500    0.0000 C.3     1  UNL1       -0.0653
     20 C           3.4030   -2.7500    0.0000 C.2     1  UNL1        0.2105
     21 H          13.1413    0.1674    0.0000 H       1  UNL1        0.0265
     22 H          13.5398    0.8577    0.0000 H       1  UNL1        0.0265
     23 H          11.8512    0.8326    0.0000 H       1  UNL1        0.0265
     24 H          11.4526    0.1423    0.0000 H       1  UNL1        0.0265
     25 H           8.1316   -1.7750    0.0000 H       1  UNL1        0.0265
     26 H           7.3346   -1.7750    0.0000 H       1  UNL1        0.0265
     27 H           6.4685   -3.2250    0.0000 H       1  UNL1        0.0265
     28 H           7.2656   -3.2250    0.0000 H       1  UNL1        0.0265
     29 H          12.7172    2.3326    0.0000 H       1  UNL1        0.0265
     30 H          12.3187    1.6423    0.0000 H       1  UNL1        0.0265
     31 H          12.2753   -1.3326    0.0000 H       1  UNL1        0.0268
     32 H          12.6738   -0.6423    0.0000 H       1  UNL1        0.0268
     33 H           8.2006   -3.2250    0.0000 H       1  UNL1        0.0268
     34 H           8.9976   -3.2250    0.0000 H       1  UNL1        0.0268
     35 H           6.3996   -1.7750    0.0000 H       1  UNL1        0.0265
     36 H           5.6025   -1.7750    0.0000 H       1  UNL1        0.0265
     37 H          14.0073    1.6674    0.0000 H       1  UNL1        0.0265
     38 H          14.4058    2.3577    0.0000 H       1  UNL1        0.0265
     39 H          10.9851   -0.6674    0.0000 H       1  UNL1        0.0307
     40 H          10.5866   -1.3577    0.0000 H       1  UNL1        0.0307
     41 H           9.8637   -1.7750    0.0000 H       1  UNL1        0.0307
     42 H           9.0666   -1.7750    0.0000 H       1  UNL1        0.0307
     43 H           4.7365   -3.2250    0.0000 H       1  UNL1        0.0270
     44 H           5.5335   -3.2250    0.0000 H       1  UNL1        0.0270
     45 H          13.5832    3.8326    0.0000 H       1  UNL1        0.0263
     46 H          13.1847    3.1423    0.0000 H       1  UNL1        0.0263
     47 H          11.7341   -2.5600    0.0000 H       1  UNL1        0.0569
     48 H          10.3312   -3.3700    0.0000 H       1  UNL1        0.0569
     49 H           4.6675   -1.7750    0.0000 H       1  UNL1        0.0358
     50 H           3.8705   -1.7750    0.0000 H       1  UNL1        0.0358
     51 H          14.9713    3.2131    0.0000 H       1  UNL1        0.0230
     52 H          15.1982    4.0600    0.0000 H       1  UNL1        0.0230
     53 H          14.3513    4.2869    0.0000 H       1  UNL1        0.0230
     54 H           2.0000   -2.5600    0.0000 H       1  UNL1        0.1449
     55 H           2.5369   -1.6300    0.0000 H       1  UNL1        0.1449
@<TRIPOS>BOND
     1     1    20    2
     2     2    20   am
     3     2    54    1
     4     2    55    1
     5     3     4    1
     6     3     7    1
     7     3    21    1
     8     3    22    1
     9     4     8    1
    10     4    23    1
    11     4    24    1
    12     5     6    1
    13     5     9    1
    14     5    25    1
    15     5    26    1
    16     6    10    1
    17     6    27    1
    18     6    28    1
    19     7    11    1
    20     7    29    1
    21     7    30    1
    22     8    12    1
    23     8    31    1
    24     8    32    1
    25     9    13    1
    26     9    33    1
    27     9    34    1
    28    10    14    1
    29    10    35    1
    30    10    36    1
    31    11    15    1
    32    11    37    1
    33    11    38    1
    34    12    16    1
    35    12    39    1
    36    12    40    1
    37    13    17    1
    38    13    41    1
    39    13    42    1
    40    14    18    1
    41    14    43    1
    42    14    44    1
    43    15    19    1
    44    15    45    1
    45    15    46    1
    46    16    17    2
    47    16    47    1
    48    17    48    1
    49    18    20    1
    50    18    49    1
    51    18    50    1
    52    19    51    1
    53    19    52    1
    54    19    53    1
