@<TRIPOS>MOLECULE
IMPHY017327
 32 32 0 0 0
SMALL
GASTEIGER

@<TRIPOS>ATOM
      1 O           4.7690    2.1830    0.0000 O.3     1  UNL1       -0.3888
      2 O           2.5369   -0.6830    0.0000 O.3     1  UNL1       -0.3914
      3 C           4.2690   -0.6830    0.0000 C.3     1  UNL1       -0.0125
      4 C           4.2690    1.3170    0.0000 C.3     1  UNL1        0.0657
      5 C           3.4030   -0.1830    0.0000 C.3     1  UNL1        0.0609
      6 C           5.1350   -0.1830    0.0000 C.3     1  UNL1       -0.0450
      7 C           3.4030    0.8170    0.0000 C.3     1  UNL1        0.0021
      8 C           5.1350    0.8170    0.0000 C.3     1  UNL1       -0.0238
      9 C           4.2690   -1.6830    0.0000 C.3     1  UNL1       -0.0415
     10 C           3.7690    2.1830    0.0000 C.3     1  UNL1       -0.0360
     11 C           5.1350   -2.1830    0.0000 C.3     1  UNL1       -0.0623
     12 C           3.4030   -2.1830    0.0000 C.3     1  UNL1       -0.0623
     13 H           4.8059   -0.9930    0.0000 H       1  UNL1        0.0328
     14 H           3.4030   -0.8030    0.0000 H       1  UNL1        0.0597
     15 H           5.3471   -0.7656    0.0000 H       1  UNL1        0.0270
     16 H           5.7456   -0.0754    0.0000 H       1  UNL1        0.0270
     17 H           3.1909    1.3996    0.0000 H       1  UNL1        0.0318
     18 H           2.7924    0.7093    0.0000 H       1  UNL1        0.0318
     19 H           5.7456    0.7093    0.0000 H       1  UNL1        0.0293
     20 H           5.3471    1.3996    0.0000 H       1  UNL1        0.0293
     21 H           4.2690   -2.3030    0.0000 H       1  UNL1        0.0299
     22 H           4.3059    2.4930    0.0000 H       1  UNL1        0.0257
     23 H           3.4590    2.7200    0.0000 H       1  UNL1        0.0257
     24 H           3.2320    1.8730    0.0000 H       1  UNL1        0.0257
     25 H           4.8250   -2.7200    0.0000 H       1  UNL1        0.0232
     26 H           5.6720   -2.4930    0.0000 H       1  UNL1        0.0232
     27 H           5.4450   -1.6461    0.0000 H       1  UNL1        0.0232
     28 H           3.0930   -1.6461    0.0000 H       1  UNL1        0.0232
     29 H           2.8660   -2.4930    0.0000 H       1  UNL1        0.0232
     30 H           3.7130   -2.7200    0.0000 H       1  UNL1        0.0232
     31 H           5.3890    2.1830    0.0000 H       1  UNL1        0.2101
     32 H           2.0000   -0.3730    0.0000 H       1  UNL1        0.2098
@<TRIPOS>BOND
     1     1     4    1
     2     1    31    1
     3     2     5    1
     4     2    32    1
     5     3     5    1
     6     3     6    1
     7     3     9    1
     8     3    13    1
     9     4     7    1
    10     4     8    1
    11     4    10    1
    12     5     7    1
    13     5    14    1
    14     6     8    1
    15     6    15    1
    16     6    16    1
    17     7    17    1
    18     7    18    1
    19     8    19    1
    20     8    20    1
    21     9    11    1
    22     9    12    1
    23     9    21    1
    24    10    22    1
    25    10    23    1
    26    10    24    1
    27    11    25    1
    28    11    26    1
    29    11    27    1
    30    12    28    1
    31    12    29    1
    32    12    30    1
