@<TRIPOS>MOLECULE
IMPHY007939
 74 78 0 0 0
SMALL
GASTEIGER

@<TRIPOS>ATOM
      1 O           8.5991   -0.3845    0.0000 O.3     1  UNL1       -0.3313
      2 O           6.0010   -0.8845    0.0000 O.3     1  UNL1       -0.3461
      3 O           6.8671   -2.3845    0.0000 O.3     1  UNL1       -0.3865
      4 O           5.1350    0.6155    0.0000 O.3     1  UNL1       -0.3461
      5 O          10.3312   -0.3845    0.0000 O.3     1  UNL1       -0.4599
      6 O           8.5991   -3.3845    0.0000 O.3     1  UNL1       -0.3864
      7 O          10.3312   -2.3845    0.0000 O.3     1  UNL1       -0.3829
      8 O           4.2690   -1.8845    0.0000 O.3     1  UNL1       -0.3841
      9 O           2.5369   -0.8845    0.0000 O.3     1  UNL1       -0.3864
     10 O           2.5369    1.1155    0.0000 O.3     1  UNL1       -0.3869
     11 O          12.1145    2.6297    0.0000 O.2     1  UNL1       -0.4541
     12 O           8.5849    2.6946    0.0000 O.3     1  UNL1       -0.4949
     13 O          12.0799   -0.3701    0.0000 O.2     1  UNL1       -0.2861
     14 O          13.8277   -0.4249    0.0000 O.3     1  UNL1       -0.4942
     15 O          15.6447    2.6130    0.0000 O.3     1  UNL1       -0.4949
     16 C           7.7331   -0.8845    0.0000 C.3     1  UNL1        0.1144
     17 C           7.7331   -1.8845    0.0000 C.3     1  UNL1        0.1120
     18 C           8.5991   -2.3845    0.0000 C.3     1  UNL1        0.1152
     19 C           9.4651   -1.8845    0.0000 C.3     1  UNL1        0.1454
     20 C           9.4651   -0.8845    0.0000 C.3     1  UNL1        0.2308
     21 C           6.8671   -0.3845    0.0000 C.3     1  UNL1        0.0796
     22 C           5.1350   -0.3845    0.0000 C.3     1  UNL1        0.1876
     23 C           4.2690   -0.8845    0.0000 C.3     1  UNL1        0.1341
     24 C           3.4030   -0.3845    0.0000 C.3     1  UNL1        0.1137
     25 C           3.4030    0.6155    0.0000 C.3     1  UNL1        0.1069
     26 C           4.2690    1.1155    0.0000 C.3     1  UNL1        0.0792
     27 C          10.3312    0.6155    0.0000 C.ar    1  UNL1        0.1418
     28 C          11.2312    1.1398    0.0000 C.ar    1  UNL1        0.1065
     29 C           9.4311    1.1398    0.0000 C.ar    1  UNL1        0.0228
     30 C          11.2428    2.1397    0.0000 C.ar    1  UNL1        0.1463
     31 C          12.0914    0.6298    0.0000 C.ar    1  UNL1        0.2073
     32 C           9.4431    2.1813    0.0000 C.ar    1  UNL1        0.1271
     33 C          10.3551    2.6847    0.0000 C.ar    1  UNL1        0.0233
     34 C          12.9632    1.1198    0.0000 C.ar    1  UNL1        0.1064
     35 C          12.9747    2.1197    0.0000 C.ar    1  UNL1        0.1463
     36 C          13.8509    0.5748    0.0000 C.ar    1  UNL1        0.1379
     37 C          13.8748    2.6440    0.0000 C.ar    1  UNL1        0.0233
     38 C          14.7628    1.0781    0.0000 C.ar    1  UNL1        0.0227
     39 C          14.7749    2.1197    0.0000 C.ar    1  UNL1        0.1271
     40 C           8.6004    3.6945    0.0000 C.3     1  UNL1        0.0788
     41 C          14.6820   -0.9448    0.0000 C.3     1  UNL1        0.0788
     42 C          16.5069    2.1063    0.0000 C.3     1  UNL1        0.0788
     43 H           7.7331   -0.2645    0.0000 H       1  UNL1        0.0647
     44 H           7.7331   -2.5045    0.0000 H       1  UNL1        0.0647
     45 H           9.1360   -2.6945    0.0000 H       1  UNL1        0.0648
     46 H          10.0021   -1.5745    0.0000 H       1  UNL1        0.0683
     47 H           9.4651   -0.2645    0.0000 H       1  UNL1        0.1084
     48 H           7.2656    0.0904    0.0000 H       1  UNL1        0.0587
     49 H           6.4685    0.0904    0.0000 H       1  UNL1        0.0587
     50 H           5.1350   -1.0045    0.0000 H       1  UNL1        0.0937
     51 H           3.7320   -1.1945    0.0000 H       1  UNL1        0.0671
     52 H           2.8660   -0.0745    0.0000 H       1  UNL1        0.0647
     53 H           3.4030    1.2355    0.0000 H       1  UNL1        0.0643
     54 H           4.6675    1.5904    0.0000 H       1  UNL1        0.0587
     55 H           3.8705    1.5904    0.0000 H       1  UNL1        0.0587
     56 H           6.8671   -3.0045    0.0000 H       1  UNL1        0.2100
     57 H           8.0622   -3.6945    0.0000 H       1  UNL1        0.2100
     58 H          10.3312   -3.0045    0.0000 H       1  UNL1        0.2102
     59 H           3.7320   -2.1945    0.0000 H       1  UNL1        0.2101
     60 H           2.0000   -0.5745    0.0000 H       1  UNL1        0.2100
     61 H           2.5369    1.7355    0.0000 H       1  UNL1        0.2100
     62 H           8.8918    0.8339    0.0000 H       1  UNL1        0.0691
     63 H          10.3694    3.3045    0.0000 H       1  UNL1        0.0691
     64 H          13.8748    3.2640    0.0000 H       1  UNL1        0.0691
     65 H          15.2949    0.7599    0.0000 H       1  UNL1        0.0691
     66 H           9.2203    3.6850    0.0000 H       1  UNL1        0.0660
     67 H           8.6099    4.3144    0.0000 H       1  UNL1        0.0660
     68 H           7.9804    3.7041    0.0000 H       1  UNL1        0.0660
     69 H          14.3596   -1.4745    0.0000 H       1  UNL1        0.0660
     70 H          15.2116   -1.2672    0.0000 H       1  UNL1        0.0660
     71 H          15.0043   -0.4152    0.0000 H       1  UNL1        0.0660
     72 H          16.1927    1.5718    0.0000 H       1  UNL1        0.0660
     73 H          17.0414    1.7922    0.0000 H       1  UNL1        0.0660
     74 H          16.8210    2.6409    0.0000 H       1  UNL1        0.0660
@<TRIPOS>BOND
     1     1    16    1
     2     1    20    1
     3     2    21    1
     4    22     2    1
     5    17     3    1
     6     3    56    1
     7     4    22    1
     8     4    26    1
     9    20     5    1
    10     5    27    1
    11    18     6    1
    12     6    57    1
    13    19     7    1
    14     7    58    1
    15    23     8    1
    16     8    59    1
    17    24     9    1
    18     9    60    1
    19    25    10    1
    20    10    61    1
    21    11    30   ar
    22    11    35   ar
    23    12    32    1
    24    12    40    1
    25    13    31    2
    26    14    36    1
    27    14    41    1
    28    15    39    1
    29    15    42    1
    30    16    17    1
    31    16    21    1
    32    16    43    1
    33    17    18    1
    34    17    44    1
    35    18    19    1
    36    18    45    1
    37    19    20    1
    38    19    46    1
    39    20    47    1
    40    21    48    1
    41    21    49    1
    42    22    23    1
    43    22    50    1
    44    23    24    1
    45    23    51    1
    46    24    25    1
    47    24    52    1
    48    25    26    1
    49    25    53    1
    50    26    54    1
    51    26    55    1
    52    27    28   ar
    53    27    29   ar
    54    28    30   ar
    55    28    31   ar
    56    29    32   ar
    57    29    62    1
    58    30    33   ar
    59    31    34   ar
    60    32    33   ar
    61    33    63    1
    62    34    35   ar
    63    34    36   ar
    64    35    37   ar
    65    36    38   ar
    66    37    39   ar
    67    37    64    1
    68    38    39   ar
    69    38    65    1
    70    40    66    1
    71    40    67    1
    72    40    68    1
    73    41    69    1
    74    41    70    1
    75    41    71    1
    76    42    72    1
    77    42    73    1
    78    42    74    1
