@<TRIPOS>MOLECULE
IMPHY000815
 43 43 0 0 0
SMALL
GASTEIGER

@<TRIPOS>ATOM
      1 O           6.3301    1.2694    0.0000 O.3     1  UNL1       -0.3892
      2 O           4.5981    3.2694    0.0000 O.3     1  UNL1       -0.3890
      3 O           2.0000   -1.2306    0.0000 O.2     1  UNL1       -0.2920
      4 O           3.3660   -4.2694    0.0000 O.2     1  UNL1       -0.4703
      5 C           4.5981    0.2694    0.0000 C.3     1  UNL1       -0.0411
      6 C           4.5981    1.2694    0.0000 C.3     1  UNL1       -0.0218
      7 C           5.4641    1.7694    0.0000 C.3     1  UNL1        0.0815
      8 C           5.4641    2.7694    0.0000 C.3     1  UNL1        0.0834
      9 C           6.3301    3.2694    0.0000 C.3     1  UNL1       -0.0182
     10 C           3.7320   -0.2306    0.0000 C.3     1  UNL1       -0.0434
     11 C           5.4641   -0.2306    0.0000 C.3     1  UNL1       -0.0623
     12 C           3.7320   -1.2306    0.0000 C.3     1  UNL1        0.0108
     13 C           6.3301    4.2694    0.0000 C.3     1  UNL1       -0.0602
     14 C           7.1962    2.7694    0.0000 C.3     1  UNL1       -0.0602
     15 C           2.8660   -1.7306    0.0000 C.2     1  UNL1        0.1662
     16 C           2.8660   -2.7306    0.0000 C.ar    1  UNL1        0.0550
     17 C           2.0570   -3.3184    0.0000 C.ar    1  UNL1       -0.0134
     18 C           3.6750   -3.3184    0.0000 C.ar    1  UNL1        0.1021
     19 C           2.3660   -4.2694    0.0000 C.ar    1  UNL1        0.0924
     20 H           4.5981   -0.5806    0.0000 H       1  UNL1        0.0299
     21 H           4.3860    1.8520    0.0000 H       1  UNL1        0.0293
     22 H           3.9875    1.1618    0.0000 H       1  UNL1        0.0293
     23 H           5.4641    0.9194    0.0000 H       1  UNL1        0.0619
     24 H           5.4641    3.6194    0.0000 H       1  UNL1        0.0621
     25 H           6.8671    3.5794    0.0000 H       1  UNL1        0.0321
     26 H           3.5200    0.3520    0.0000 H       1  UNL1        0.0272
     27 H           3.1215   -0.3382    0.0000 H       1  UNL1        0.0272
     28 H           5.1541   -0.7675    0.0000 H       1  UNL1        0.0232
     29 H           6.0010   -0.5406    0.0000 H       1  UNL1        0.0232
     30 H           5.7741    0.3064    0.0000 H       1  UNL1        0.0232
     31 H           3.9441   -1.8132    0.0000 H       1  UNL1        0.0345
     32 H           4.3426   -1.1229    0.0000 H       1  UNL1        0.0345
     33 H           6.9501    4.2694    0.0000 H       1  UNL1        0.0233
     34 H           6.3301    4.8894    0.0000 H       1  UNL1        0.0233
     35 H           5.7101    4.2694    0.0000 H       1  UNL1        0.0233
     36 H           6.8862    2.2325    0.0000 H       1  UNL1        0.0233
     37 H           7.7331    2.4594    0.0000 H       1  UNL1        0.0233
     38 H           7.5062    3.3064    0.0000 H       1  UNL1        0.0233
     39 H           6.8671    1.5794    0.0000 H       1  UNL1        0.2099
     40 H           4.5981    3.8894    0.0000 H       1  UNL1        0.2099
     41 H           1.4674   -3.1268    0.0000 H       1  UNL1        0.0656
     42 H           4.2647   -3.1268    0.0000 H       1  UNL1        0.1036
     43 H           2.0016   -4.7710    0.0000 H       1  UNL1        0.1029
@<TRIPOS>BOND
     1     1     7    1
     2     1    39    1
     3     2     8    1
     4     2    40    1
     5     3    15    2
     6     4    18   ar
     7     4    19   ar
     8     5     6    1
     9     5    10    1
    10     5    11    1
    11     5    20    1
    12     6     7    1
    13     6    21    1
    14     6    22    1
    15     7     8    1
    16     7    23    1
    17     8     9    1
    18     8    24    1
    19     9    13    1
    20     9    14    1
    21     9    25    1
    22    10    12    1
    23    10    26    1
    24    10    27    1
    25    11    28    1
    26    11    29    1
    27    11    30    1
    28    12    15    1
    29    12    31    1
    30    12    32    1
    31    13    33    1
    32    13    34    1
    33    13    35    1
    34    14    36    1
    35    14    37    1
    36    14    38    1
    37    15    16    1
    38    16    17   ar
    39    16    18   ar
    40    17    19   ar
    41    17    41    1
    42    18    42    1
    43    19    43    1
