@<TRIPOS>MOLECULE
IMPHY009457
 169 174 0 0 0
SMALL
GASTEIGER

@<TRIPOS>ATOM
      1 O          14.9904    0.6251    0.0000 O.3     1  UNL1       -0.3451
      2 O          13.2583    0.6251    0.0000 O.3     1  UNL1       -0.3405
      3 O          14.9904   -1.3749    0.0000 O.3     1  UNL1       -0.3841
      4 O          13.2583   -2.3749    0.0000 O.3     1  UNL1       -0.3864
      5 O          11.5263   -1.3749    0.0000 O.3     1  UNL1       -0.3865
      6 O          10.6603    0.1251    0.0000 O.3     1  UNL1       -0.3675
      7 O           8.9282   -0.8749    0.0000 O.3     1  UNL1       -0.4559
      8 O          10.6603    2.1251    0.0000 O.3     1  UNL1       -0.3864
      9 O           7.1962    0.1251    0.0000 O.3     1  UNL1       -0.3854
     10 O           8.9282    3.1251    0.0000 O.3     1  UNL1       -0.3865
     11 O           7.1962    2.1251    0.0000 O.3     1  UNL1       -0.3864
     12 O           7.1962   -0.8749    0.0000 O.2     1  UNL1       -0.2508
     13 C          15.0196    6.8220    0.0000 C.3     1  UNL1       -0.0259
     14 C          15.8876    6.3253    0.0000 C.3     1  UNL1       -0.0320
     15 C          15.8914    5.3253    0.0000 C.3     1  UNL1       -0.0307
     16 C          15.0274    4.8220    0.0000 C.3     1  UNL1       -0.0285
     17 C          15.2251    7.7946    0.0000 C.3     1  UNL1       -0.0328
     18 C          14.1556    6.3186    0.0000 C.3     1  UNL1       -0.0468
     19 C          15.0153    3.7804    0.0000 C.3     1  UNL1       -0.0078
     20 C          16.6220    6.9952    0.0000 C.3     1  UNL1       -0.0492
     21 C          14.1594    5.3186    0.0000 C.3     1  UNL1       -0.0486
     22 C          16.2134    7.9015    0.0000 C.3     1  UNL1       -0.0492
     23 C          16.8034    4.8220    0.0000 C.3     1  UNL1       -0.0311
     24 C          14.5544    8.5363    0.0000 C.3     1  UNL1       -0.0405
     25 C          14.1517    7.3186    0.0000 C.3     1  UNL1       -0.0590
     26 C          15.9154    3.2561    0.0000 C.2     1  UNL1       -0.0648
     27 C          14.0654    3.2561    0.0000 C.3     1  UNL1       -0.0413
     28 C          16.8154    3.7804    0.0000 C.2     1  UNL1       -0.0839
     29 C          14.1512    4.2838    0.0000 C.3     1  UNL1       -0.0556
     30 C          15.9279    2.1712    0.0000 C.3     1  UNL1       -0.0047
     31 C          14.0528    2.1712    0.0000 C.3     1  UNL1       -0.0254
     32 C          14.8614    9.4880    0.0000 C.3     1  UNL1       -0.0499
     33 C          14.9904    1.6251    0.0000 C.3     1  UNL1        0.0655
     34 C          13.5767    8.3263    0.0000 C.3     1  UNL1       -0.0621
     35 C          14.1907   10.2297    0.0000 C.3     1  UNL1       -0.0497
     36 C          14.4977   11.1815    0.0000 C.3     1  UNL1       -0.0389
     37 C          14.1244    0.1251    0.0000 C.3     1  UNL1        0.1882
     38 C          13.8270   11.9232    0.0000 C.3     1  UNL1       -0.0439
     39 C          15.4754   11.3914    0.0000 C.3     1  UNL1       -0.0528
     40 C          14.1244   -0.8749    0.0000 C.3     1  UNL1        0.1341
     41 C          14.1340   12.8749    0.0000 C.3     1  UNL1       -0.0624
     42 C          12.8493   11.7132    0.0000 C.3     1  UNL1       -0.0624
     43 C          13.2583   -1.3749    0.0000 C.3     1  UNL1        0.1141
     44 C          15.7824   12.3432    0.0000 C.3     1  UNL1       -0.0650
     45 C          12.3923    0.1251    0.0000 C.3     1  UNL1        0.1133
     46 C          12.3923   -0.8749    0.0000 C.3     1  UNL1        0.1119
     47 C          11.5263    0.6251    0.0000 C.3     1  UNL1        0.0771
     48 C           9.7942    0.6251    0.0000 C.3     1  UNL1        0.1264
     49 C           8.9282    0.1251    0.0000 C.3     1  UNL1        0.1597
     50 C           9.7942    1.6251    0.0000 C.3     1  UNL1        0.1131
     51 C           8.0622    0.6251    0.0000 C.3     1  UNL1        0.1228
     52 C           8.9282    2.1251    0.0000 C.3     1  UNL1        0.1119
     53 C           8.0622    1.6251    0.0000 C.3     1  UNL1        0.1129
     54 C           8.0622   -1.3749    0.0000 C.2     1  UNL1        0.3075
     55 C           8.0622   -2.3749    0.0000 C.3     1  UNL1        0.0450
     56 C           7.1962   -2.8749    0.0000 C.3     1  UNL1       -0.0430
     57 C           7.1962   -3.8749    0.0000 C.3     1  UNL1       -0.0526
     58 C           6.3301   -4.3749    0.0000 C.3     1  UNL1       -0.0530
     59 C           6.3301   -5.3749    0.0000 C.3     1  UNL1       -0.0531
     60 C           5.4641   -5.8749    0.0000 C.3     1  UNL1       -0.0531
     61 C           5.4641   -6.8749    0.0000 C.3     1  UNL1       -0.0531
     62 C           4.5981   -7.3749    0.0000 C.3     1  UNL1       -0.0531
     63 C           4.5981   -8.3749    0.0000 C.3     1  UNL1       -0.0531
     64 C           3.7320   -8.8749    0.0000 C.3     1  UNL1       -0.0531
     65 C           3.7320   -9.8749    0.0000 C.3     1  UNL1       -0.0531
     66 C           2.8660  -10.3749    0.0000 C.3     1  UNL1       -0.0531
     67 C           2.8660  -11.3749    0.0000 C.3     1  UNL1       -0.0533
     68 C           2.0000  -11.8749    0.0000 C.3     1  UNL1       -0.0559
     69 C           2.0000  -12.8749    0.0000 C.3     1  UNL1       -0.0653
     70 H          16.4553    6.0761    0.0000 H       1  UNL1        0.0309
     71 H          16.4248    5.6415    0.0000 H       1  UNL1        0.0309
     72 H          15.5631    4.5099    0.0000 H       1  UNL1        0.0312
     73 H          15.4458    8.3740    0.0000 H       1  UNL1        0.0309
     74 H          13.9413    6.9004    0.0000 H       1  UNL1        0.0271
     75 H          13.5454    6.2086    0.0000 H       1  UNL1        0.0271
     76 H          16.9894    6.4958    0.0000 H       1  UNL1        0.0268
     77 H          17.1573    7.3081    0.0000 H       1  UNL1        0.0268
     78 H          13.5484    5.4240    0.0000 H       1  UNL1        0.0268
     79 H          13.9496    4.7352    0.0000 H       1  UNL1        0.0268
     80 H          16.8023    8.0955    0.0000 H       1  UNL1        0.0268
     81 H          16.0823    8.5074    0.0000 H       1  UNL1        0.0268
     82 H          17.4154    4.7230    0.0000 H       1  UNL1        0.0310
     83 H          17.0057    5.4081    0.0000 H       1  UNL1        0.0310
     84 H          14.3641    7.9463    0.0000 H       1  UNL1        0.0301
     85 H          14.4596    7.8568    0.0000 H       1  UNL1        0.0235
     86 H          13.6136    7.6266    0.0000 H       1  UNL1        0.0235
     87 H          13.8438    6.7805    0.0000 H       1  UNL1        0.0235
     88 H          13.8631    3.8422    0.0000 H       1  UNL1        0.0274
     89 H          13.4534    3.1571    0.0000 H       1  UNL1        0.0274
     90 H          17.3547    3.4746    0.0000 H       1  UNL1        0.0572
     91 H          14.4633    4.8195    0.0000 H       1  UNL1        0.0238
     92 H          13.6155    4.5958    0.0000 H       1  UNL1        0.0238
     93 H          13.8391    3.7480    0.0000 H       1  UNL1        0.0238
     94 H          16.1437    1.5900    0.0000 H       1  UNL1        0.0335
     95 H          16.5375    2.2844    0.0000 H       1  UNL1        0.0335
     96 H          13.4433    2.2844    0.0000 H       1  UNL1        0.0290
     97 H          13.8371    1.5900    0.0000 H       1  UNL1        0.0290
     98 H          15.4094    9.1981    0.0000 H       1  UNL1        0.0268
     99 H          15.2421    9.9774    0.0000 H       1  UNL1        0.0268
    100 H          15.5279    1.3161    0.0000 H       1  UNL1        0.0600
    101 H          13.4465    8.9325    0.0000 H       1  UNL1        0.0233
    102 H          12.9705    8.1961    0.0000 H       1  UNL1        0.0233
    103 H          13.7069    7.7202    0.0000 H       1  UNL1        0.0233
    104 H          13.6426   10.5197    0.0000 H       1  UNL1        0.0268
    105 H          13.8100    9.7404    0.0000 H       1  UNL1        0.0268
    106 H          14.6880   11.7715    0.0000 H       1  UNL1        0.0303
    107 H          14.6613   -0.1849    0.0000 H       1  UNL1        0.0937
    108 H          13.4111   12.3830    0.0000 H       1  UNL1        0.0298
    109 H          15.4983   10.7719    0.0000 H       1  UNL1        0.0265
    110 H          16.0895   11.3065    0.0000 H       1  UNL1        0.0265
    111 H          14.1244   -1.4949    0.0000 H       1  UNL1        0.0671
    112 H          14.7240   12.6846    0.0000 H       1  UNL1        0.0232
    113 H          14.3243   13.4650    0.0000 H       1  UNL1        0.0232
    114 H          13.5439   13.0652    0.0000 H       1  UNL1        0.0232
    115 H          12.7191   12.3194    0.0000 H       1  UNL1        0.0232
    116 H          12.2431   11.5830    0.0000 H       1  UNL1        0.0232
    117 H          12.9795   11.1070    0.0000 H       1  UNL1        0.0232
    118 H          13.7953   -1.6849    0.0000 H       1  UNL1        0.0648
    119 H          16.3724   12.1528    0.0000 H       1  UNL1        0.0230
    120 H          15.9727   12.9332    0.0000 H       1  UNL1        0.0230
    121 H          15.1923   12.5335    0.0000 H       1  UNL1        0.0230
    122 H          12.3923    0.7451    0.0000 H       1  UNL1        0.0647
    123 H          12.3923   -1.4949    0.0000 H       1  UNL1        0.0647
    124 H          14.9904   -1.9949    0.0000 H       1  UNL1        0.2101
    125 H          11.9248    1.1000    0.0000 H       1  UNL1        0.0587
    126 H          11.1278    1.1000    0.0000 H       1  UNL1        0.0587
    127 H          12.7214   -2.6849    0.0000 H       1  UNL1        0.2100
    128 H          11.5263   -1.9949    0.0000 H       1  UNL1        0.2100
    129 H           9.7942    0.0051    0.0000 H       1  UNL1        0.0661
    130 H           8.3913   -0.1849    0.0000 H       1  UNL1        0.0788
    131 H          10.3312    1.3151    0.0000 H       1  UNL1        0.0647
    132 H           7.5252    0.9351    0.0000 H       1  UNL1        0.0658
    133 H           9.4651    2.4351    0.0000 H       1  UNL1        0.0647
    134 H           8.0622    2.2451    0.0000 H       1  UNL1        0.0647
    135 H          10.6603    2.7451    0.0000 H       1  UNL1        0.2100
    136 H           6.6592    0.4351    0.0000 H       1  UNL1        0.2101
    137 H           8.3913    3.4351    0.0000 H       1  UNL1        0.2100
    138 H           7.1962    2.7451    0.0000 H       1  UNL1        0.2100
    139 H           8.2742   -2.9575    0.0000 H       1  UNL1        0.0377
    140 H           8.6728   -2.2672    0.0000 H       1  UNL1        0.0377
    141 H           6.9841   -2.2923    0.0000 H       1  UNL1        0.0270
    142 H           6.5856   -2.9825    0.0000 H       1  UNL1        0.0270
    143 H           7.4082   -4.4575    0.0000 H       1  UNL1        0.0265
    144 H           7.8067   -3.7672    0.0000 H       1  UNL1        0.0265
    145 H           6.1181   -3.7923    0.0000 H       1  UNL1        0.0265
    146 H           5.7196   -4.4826    0.0000 H       1  UNL1        0.0265
    147 H           6.5422   -5.9575    0.0000 H       1  UNL1        0.0265
    148 H           6.9407   -5.2672    0.0000 H       1  UNL1        0.0265
    149 H           5.2520   -5.2923    0.0000 H       1  UNL1        0.0265
    150 H           4.8535   -5.9826    0.0000 H       1  UNL1        0.0265
    151 H           5.6762   -7.4575    0.0000 H       1  UNL1        0.0265
    152 H           6.0747   -6.7672    0.0000 H       1  UNL1        0.0265
    153 H           4.3860   -6.7923    0.0000 H       1  UNL1        0.0265
    154 H           3.9875   -7.4826    0.0000 H       1  UNL1        0.0265
    155 H           4.8101   -8.9575    0.0000 H       1  UNL1        0.0265
    156 H           5.2087   -8.2672    0.0000 H       1  UNL1        0.0265
    157 H           3.5200   -8.2923    0.0000 H       1  UNL1        0.0265
    158 H           3.1215   -8.9826    0.0000 H       1  UNL1        0.0265
    159 H           3.9441  -10.4575    0.0000 H       1  UNL1        0.0265
    160 H           4.3426   -9.7672    0.0000 H       1  UNL1        0.0265
    161 H           2.6540   -9.7923    0.0000 H       1  UNL1        0.0265
    162 H           2.2554  -10.4826    0.0000 H       1  UNL1        0.0265
    163 H           3.0781  -11.9575    0.0000 H       1  UNL1        0.0265
    164 H           3.4766  -11.2672    0.0000 H       1  UNL1        0.0265
    165 H           1.7880  -11.2923    0.0000 H       1  UNL1        0.0263
    166 H           1.3894  -11.9826    0.0000 H       1  UNL1        0.0263
    167 H           1.3800  -12.8749    0.0000 H       1  UNL1        0.0230
    168 H           2.0000  -13.4949    0.0000 H       1  UNL1        0.0230
    169 H           2.6200  -12.8749    0.0000 H       1  UNL1        0.0230
@<TRIPOS>BOND
     1     1    33    1
     2     1    37    1
     3     2    37    1
     4     2    45    1
     5     3    40    1
     6     3   124    1
     7     4    43    1
     8     4   127    1
     9     5    46    1
    10     5   128    1
    11     6    47    1
    12     6    48    1
    13     7    49    1
    14     7    54    1
    15     8    50    1
    16     8   135    1
    17     9    51    1
    18     9   136    1
    19    10    52    1
    20    10   137    1
    21    11    53    1
    22    11   138    1
    23    12    54    2
    24    13    14    1
    25    13    17    1
    26    13    18    1
    27    13    25    1
    28    14    15    1
    29    14    20    1
    30    14    70    1
    31    15    16    1
    32    15    23    1
    33    15    71    1
    34    16    19    1
    35    16    21    1
    36    16    72    1
    37    17    22    1
    38    17    24    1
    39    17    73    1
    40    18    21    1
    41    18    74    1
    42    18    75    1
    43    19    26    1
    44    19    27    1
    45    19    29    1
    46    20    22    1
    47    20    76    1
    48    20    77    1
    49    21    78    1
    50    21    79    1
    51    22    80    1
    52    22    81    1
    53    23    28    1
    54    23    82    1
    55    23    83    1
    56    24    32    1
    57    24    34    1
    58    24    84    1
    59    25    85    1
    60    25    86    1
    61    25    87    1
    62    26    28    2
    63    26    30    1
    64    27    31    1
    65    27    88    1
    66    27    89    1
    67    28    90    1
    68    29    91    1
    69    29    92    1
    70    29    93    1
    71    30    33    1
    72    30    94    1
    73    30    95    1
    74    31    33    1
    75    31    96    1
    76    31    97    1
    77    32    35    1
    78    32    98    1
    79    32    99    1
    80    33   100    1
    81    34   101    1
    82    34   102    1
    83    34   103    1
    84    35    36    1
    85    35   104    1
    86    35   105    1
    87    36    38    1
    88    36    39    1
    89    36   106    1
    90    37    40    1
    91    37   107    1
    92    38    41    1
    93    38    42    1
    94    38   108    1
    95    39    44    1
    96    39   109    1
    97    39   110    1
    98    40    43    1
    99    40   111    1
   100    41   112    1
   101    41   113    1
   102    41   114    1
   103    42   115    1
   104    42   116    1
   105    42   117    1
   106    43    46    1
   107    43   118    1
   108    44   119    1
   109    44   120    1
   110    44   121    1
   111    45    46    1
   112    45    47    1
   113    45   122    1
   114    46   123    1
   115    47   125    1
   116    47   126    1
   117    48    49    1
   118    48    50    1
   119    48   129    1
   120    49    51    1
   121    49   130    1
   122    50    52    1
   123    50   131    1
   124    51    53    1
   125    51   132    1
   126    52    53    1
   127    52   133    1
   128    53   134    1
   129    54    55    1
   130    55    56    1
   131    55   139    1
   132    55   140    1
   133    56    57    1
   134    56   141    1
   135    56   142    1
   136    57    58    1
   137    57   143    1
   138    57   144    1
   139    58    59    1
   140    58   145    1
   141    58   146    1
   142    59    60    1
   143    59   147    1
   144    59   148    1
   145    60    61    1
   146    60   149    1
   147    60   150    1
   148    61    62    1
   149    61   151    1
   150    61   152    1
   151    62    63    1
   152    62   153    1
   153    62   154    1
   154    63    64    1
   155    63   155    1
   156    63   156    1
   157    64    65    1
   158    64   157    1
   159    64   158    1
   160    65    66    1
   161    65   159    1
   162    65   160    1
   163    66    67    1
   164    66   161    1
   165    66   162    1
   166    67    68    1
   167    67   163    1
   168    67   164    1
   169    68    69    1
   170    68   165    1
   171    68   166    1
   172    69   167    1
   173    69   168    1
   174    69   169    1
