@<TRIPOS>MOLECULE
IMPHY000894
 43 47 0 0 0
SMALL
GASTEIGER

@<TRIPOS>ATOM
      1 O           7.3092    1.4497    0.0000 O.3     1  UNL1       -0.4520
      2 O           7.3092    3.0591    0.0000 O.3     1  UNL1       -0.4526
      3 O           7.3534   -1.8826    0.0000 O.3     1  UNL1       -0.4914
      4 O           5.5501   -2.9423    0.0000 O.3     1  UNL1       -0.5033
      5 N           2.8816    1.7758    0.0000 N.3     1  UNL1       -0.2978
      6 C           3.7209    1.2475    0.0000 C.3     1  UNL1        0.0403
      7 C           4.6309    1.7544    0.0000 C.ar    1  UNL1       -0.0153
      8 C           3.7129    0.2059    0.0000 C.3     1  UNL1       -0.0072
      9 C           4.6309    2.7544    0.0000 C.ar    1  UNL1       -0.0372
     10 C           5.4969    1.2544    0.0000 C.ar    1  UNL1        0.0329
     11 C           2.9072    2.7672    0.0000 C.3     1  UNL1        0.0032
     12 C           3.7727    3.2513    0.0000 C.3     1  UNL1       -0.0144
     13 C           4.6149   -0.3149    0.0000 C.ar    1  UNL1       -0.0341
     14 C           5.5130    0.2129    0.0000 C.ar    1  UNL1       -0.0070
     15 C           6.3629    1.7544    0.0000 C.ar    1  UNL1        0.1742
     16 C           5.4969    3.2544    0.0000 C.ar    1  UNL1       -0.0126
     17 C           6.3629    2.7544    0.0000 C.ar    1  UNL1        0.1671
     18 C           2.0000    1.3037    0.0000 C.3     1  UNL1       -0.0122
     19 C           4.6066   -1.3998    0.0000 C.ar    1  UNL1       -0.0127
     20 C           6.4649   -0.3077    0.0000 C.ar    1  UNL1       -0.0082
     21 C           6.4816   -1.3926    0.0000 C.ar    1  UNL1        0.1619
     22 C           5.5462   -1.9423    0.0000 C.ar    1  UNL1        0.1587
     23 C           7.8928    2.2544    0.0000 C.3     1  UNL1        0.2333
     24 C           7.3649   -2.8825    0.0000 C.3     1  UNL1        0.0790
     25 H           3.1770    0.9499    0.0000 H       1  UNL1        0.0516
     26 H           3.1028    0.3167    0.0000 H       1  UNL1        0.0332
     27 H           3.4993   -0.3761    0.0000 H       1  UNL1        0.0332
     28 H           2.7054    3.3534    0.0000 H       1  UNL1        0.0430
     29 H           2.2944    2.6728    0.0000 H       1  UNL1        0.0430
     30 H           4.1737    3.7241    0.0000 H       1  UNL1        0.0326
     31 H           3.3786    3.7300    0.0000 H       1  UNL1        0.0326
     32 H           5.4969    3.8744    0.0000 H       1  UNL1        0.0658
     33 H           1.7073    1.8503    0.0000 H       1  UNL1        0.0391
     34 H           1.4534    1.0110    0.0000 H       1  UNL1        0.0391
     35 H           2.2927    0.7571    0.0000 H       1  UNL1        0.0391
     36 H           4.0684   -1.7078    0.0000 H       1  UNL1        0.0658
     37 H           6.9958    0.0126    0.0000 H       1  UNL1        0.0661
     38 H           8.3536    1.8397    0.0000 H       1  UNL1        0.1166
     39 H           8.3536    2.6691    0.0000 H       1  UNL1        0.1166
     40 H           5.0143   -3.2544    0.0000 H       1  UNL1        0.2923
     41 H           6.7450   -2.8897    0.0000 H       1  UNL1        0.0660
     42 H           7.3721   -3.5024    0.0000 H       1  UNL1        0.0660
     43 H           7.9849   -2.8753    0.0000 H       1  UNL1        0.0660
@<TRIPOS>BOND
     1     1    15    1
     2     1    23    1
     3     2    17    1
     4     2    23    1
     5     3    21    1
     6     3    24    1
     7     4    22    1
     8     4    40    1
     9     5     6    1
    10     5    11    1
    11     5    18    1
    12     6     7    1
    13     6     8    1
    14     6    25    1
    15     7     9   ar
    16     7    10   ar
    17     8    13    1
    18     8    26    1
    19     8    27    1
    20     9    12    1
    21     9    16   ar
    22    10    14    1
    23    10    15   ar
    24    11    12    1
    25    11    28    1
    26    11    29    1
    27    12    30    1
    28    12    31    1
    29    13    14   ar
    30    13    19   ar
    31    14    20   ar
    32    15    17   ar
    33    16    17   ar
    34    16    32    1
    35    18    33    1
    36    18    34    1
    37    18    35    1
    38    19    22   ar
    39    19    36    1
    40    20    21   ar
    41    20    37    1
    42    21    22   ar
    43    23    38    1
    44    23    39    1
    45    24    41    1
    46    24    42    1
    47    24    43    1
