@<TRIPOS>MOLECULE
IMPHY003222
 28 27 0 0 0
SMALL
GASTEIGER

@<TRIPOS>ATOM
      1 O           8.0622   -0.3170    0.0000 O.3     1  UNL1       -0.4802
      2 O           7.1962    1.1830    0.0000 O.2     1  UNL1       -0.2504
      3 O           2.8660    0.6830    0.0000 O.2     1  UNL1       -0.2977
      4 C           6.3301   -0.3170    0.0000 C.3     1  UNL1        0.0620
      5 C           5.4641   -0.8170    0.0000 C.3     1  UNL1       -0.0374
      6 C           4.5981   -0.3170    0.0000 C.3     1  UNL1       -0.0454
      7 C           5.8301    0.5490    0.0000 C.3     1  UNL1       -0.0497
      8 C           6.8301   -1.1830    0.0000 C.3     1  UNL1       -0.0497
      9 C           3.7320   -0.8170    0.0000 C.3     1  UNL1        0.0056
     10 C           7.1962    0.1830    0.0000 C.2     1  UNL1        0.3104
     11 C           2.8660   -0.3170    0.0000 C.2     1  UNL1        0.1303
     12 C           2.0000   -0.8170    0.0000 C.3     1  UNL1       -0.0061
     13 H           5.0656   -1.2919    0.0000 H       1  UNL1        0.0276
     14 H           5.8626   -1.2919    0.0000 H       1  UNL1        0.0276
     15 H           4.9966    0.1580    0.0000 H       1  UNL1        0.0270
     16 H           4.1996    0.1580    0.0000 H       1  UNL1        0.0270
     17 H           6.3671    0.8590    0.0000 H       1  UNL1        0.0240
     18 H           5.5201    1.0860    0.0000 H       1  UNL1        0.0240
     19 H           5.2932    0.2390    0.0000 H       1  UNL1        0.0240
     20 H           6.2932   -1.4930    0.0000 H       1  UNL1        0.0240
     21 H           7.1401   -1.7200    0.0000 H       1  UNL1        0.0240
     22 H           7.3671   -0.8730    0.0000 H       1  UNL1        0.0240
     23 H           3.3335   -1.2919    0.0000 H       1  UNL1        0.0341
     24 H           4.1306   -1.2919    0.0000 H       1  UNL1        0.0341
     25 H           8.5991   -0.0070    0.0000 H       1  UNL1        0.2951
     26 H           1.6900   -0.2801    0.0000 H       1  UNL1        0.0306
     27 H           1.4631   -1.1270    0.0000 H       1  UNL1        0.0306
     28 H           2.3100   -1.3539    0.0000 H       1  UNL1        0.0306
@<TRIPOS>BOND
     1     1    10    1
     2     1    25    1
     3     2    10    2
     4     3    11    2
     5     4     5    1
     6     4     7    1
     7     4     8    1
     8     4    10    1
     9     5     6    1
    10     5    13    1
    11     5    14    1
    12     6     9    1
    13     6    15    1
    14     6    16    1
    15     7    17    1
    16     7    18    1
    17     7    19    1
    18     8    20    1
    19     8    21    1
    20     8    22    1
    21     9    11    1
    22     9    23    1
    23     9    24    1
    24    11    12    1
    25    12    26    1
    26    12    27    1
    27    12    28    1
