@<TRIPOS>MOLECULE
IMPHY002046
 15 15 0 0 0
SMALL
GASTEIGER

@<TRIPOS>ATOM
      1 O           5.4641   -0.6900    0.0000 O.2     1  UNL1       -0.2465
      2 O           2.0000   -0.6900    0.0000 O.2     1  UNL1       -0.2677
      3 N           4.5981    0.8100    0.0000 N.ar    1  UNL1       -0.3035
      4 N           3.7320   -0.6900    0.0000 N.ar    1  UNL1       -0.2749
      5 C           4.5981   -0.1900    0.0000 C.ar    1  UNL1        0.3291
      6 C           3.7320    1.3100    0.0000 C.ar    1  UNL1        0.0141
      7 C           5.4641    1.3100    0.0000 C.3     1  UNL1        0.0161
      8 C           2.8660    0.8100    0.0000 C.ar    1  UNL1        0.0191
      9 C           2.8660   -0.1900    0.0000 C.ar    1  UNL1        0.2539
     10 H           3.7320    1.9300    0.0000 H       1  UNL1        0.0812
     11 H           5.7741    0.7731    0.0000 H       1  UNL1        0.0457
     12 H           6.0010    1.6200    0.0000 H       1  UNL1        0.0457
     13 H           5.1541    1.8469    0.0000 H       1  UNL1        0.0457
     14 H           3.7320   -1.3100    0.0000 H       1  UNL1        0.1734
     15 H           2.3291    1.1200    0.0000 H       1  UNL1        0.0686
@<TRIPOS>BOND
     1     1     5    2
     2     2     9    2
     3     3     5   ar
     4     3     6   ar
     5     3     7    1
     6     4     5   ar
     7     4     9   ar
     8     4    14    1
     9     6     8   ar
    10     6    10    1
    11     7    11    1
    12     7    12    1
    13     7    13    1
    14     8     9   ar
    15     8    15    1
