@<TRIPOS>MOLECULE
IMPHY016357
 24 24 0 0 0
SMALL
GASTEIGER

@<TRIPOS>ATOM
      1 C           3.7320    0.0000    0.0000 C.3     1  UNL1        0.0160
      2 C           4.5981    0.5000    0.0000 C.2     1  UNL1       -0.0628
      3 C           5.4641   -0.0000    0.0000 C.2     1  UNL1       -0.0691
      4 C           5.4641   -1.0000    0.0000 C.3     1  UNL1       -0.0135
      5 C           3.7320   -1.0000    0.0000 C.2     1  UNL1       -0.0768
      6 C           4.5981   -1.5000    0.0000 C.2     1  UNL1       -0.0831
      7 C           4.5981    1.5000    0.0000 C.3     1  UNL1       -0.0427
      8 C           6.3301    0.5000    0.0000 C.3     1  UNL1       -0.0432
      9 C           2.8660    0.5000    0.0000 C.2     1  UNL1       -0.0803
     10 C           2.0000    0.0000    0.0000 C.2     1  UNL1       -0.1018
     11 H           3.7320    0.6200    0.0000 H       1  UNL1        0.0431
     12 H           5.6762   -1.5826    0.0000 H       1  UNL1        0.0352
     13 H           6.0747   -0.8923    0.0000 H       1  UNL1        0.0352
     14 H           3.1951   -1.3100    0.0000 H       1  UNL1        0.0578
     15 H           4.5981   -2.1200    0.0000 H       1  UNL1        0.0572
     16 H           5.2181    1.5000    0.0000 H       1  UNL1        0.0275
     17 H           4.5981    2.1200    0.0000 H       1  UNL1        0.0275
     18 H           3.9781    1.5000    0.0000 H       1  UNL1        0.0275
     19 H           6.6401   -0.0369    0.0000 H       1  UNL1        0.0275
     20 H           6.8671    0.8100    0.0000 H       1  UNL1        0.0275
     21 H           6.0201    1.0369    0.0000 H       1  UNL1        0.0275
     22 H           2.8660    1.1200    0.0000 H       1  UNL1        0.0575
     23 H           1.4631    0.3100    0.0000 H       1  UNL1        0.0532
     24 H           2.0000   -0.6200    0.0000 H       1  UNL1        0.0532
@<TRIPOS>BOND
     1     1     2    1
     2     1     5    1
     3     1     9    1
     4     1    11    1
     5     2     3    2
     6     2     7    1
     7     3     4    1
     8     3     8    1
     9     4     6    1
    10     4    12    1
    11     4    13    1
    12     5     6    2
    13     5    14    1
    14     6    15    1
    15     7    16    1
    16     7    17    1
    17     7    18    1
    18     8    19    1
    19     8    20    1
    20     8    21    1
    21     9    10    2
    22     9    22    1
    23    10    23    1
    24    10    24    1
