@<TRIPOS>MOLECULE
IMPHY011042
 13 12 0 0 0
SMALL
GASTEIGER

@<TRIPOS>ATOM
      1 O           5.4641   -0.2500    0.0000 O.3     1  UNL1       -0.3910
      2 C           4.5981    0.2500    0.0000 C.3     1  UNL1        0.0624
      3 C           3.7320   -0.2500    0.0000 C.2     1  UNL1       -0.0631
      4 C           2.8660    0.2500    0.0000 C.2     1  UNL1       -0.0889
      5 C           2.0000   -0.2500    0.0000 C.3     1  UNL1       -0.0467
      6 H           4.9966    0.7249    0.0000 H       1  UNL1        0.0601
      7 H           4.1996    0.7249    0.0000 H       1  UNL1        0.0601
      8 H           3.7320   -0.8700    0.0000 H       1  UNL1        0.0591
      9 H           2.8660    0.8700    0.0000 H       1  UNL1        0.0567
     10 H           1.6900    0.2869    0.0000 H       1  UNL1        0.0272
     11 H           1.4631   -0.5600    0.0000 H       1  UNL1        0.0272
     12 H           2.3100   -0.7869    0.0000 H       1  UNL1        0.0272
     13 H           6.0010    0.0600    0.0000 H       1  UNL1        0.2098
@<TRIPOS>BOND
     1     1     2    1
     2     1    13    1
     3     2     3    1
     4     2     6    1
     5     2     7    1
     6     3     4    2
     7     3     8    1
     8     4     5    1
     9     4     9    1
    10     5    10    1
    11     5    11    1
    12     5    12    1
