@<TRIPOS>MOLECULE
IMPHY008857
 52 57 0 0 0
SMALL
GASTEIGER

@<TRIPOS>ATOM
      1 O           7.0628   -1.1382    0.0000 O.3     1  UNL1       -0.2232
      2 O           9.4964   -0.4324    0.0000 O.3     1  UNL1       -0.3334
      3 O           2.5357   -5.6905    0.0000 O.3     1  UNL1       -0.2232
      4 O          10.7855    0.7243    0.0000 O.3     1  UNL1       -0.3257
      5 O          10.8321   -1.9210    0.0000 O.3     1  UNL1       -0.2149
      6 O          12.7891   -1.5086    0.0000 O.3     1  UNL1       -0.2174
      7 O          13.4104    0.3924    0.0000 O.3     1  UNL1       -0.2176
      8 O          11.4069    2.6254    0.0000 O.3     1  UNL1       -0.3259
      9 O          12.6960    3.7821    0.0000 O.3     1  UNL1       -0.3257
     10 O          10.0712    4.1140    0.0000 O.3     1  UNL1       -0.2149
     11 O          10.6925    6.0150    0.0000 O.3     1  UNL1       -0.2174
     12 O          12.6495    6.4274    0.0000 O.3     1  UNL1       -0.2176
     13 C           7.0628   -4.1382    0.0000 C.3     1  UNL1        0.0002
     14 C           7.9288   -3.6382    0.0000 C.3     1  UNL1        0.0024
     15 C           6.1968   -3.6382    0.0000 C.3     1  UNL1        0.0025
     16 C           7.9288   -2.6382    0.0000 C.3     1  UNL1        0.0327
     17 C           5.2868   -4.1450    0.0000 C.3     1  UNL1        0.0002
     18 C           8.8750   -2.3335    0.0000 C.3     1  UNL1        0.0275
     19 C           5.2787   -5.1866    0.0000 C.3     1  UNL1        0.0024
     20 C           8.8750   -3.9429    0.0000 C.3     1  UNL1        0.0002
     21 C           7.0789   -5.1797    0.0000 C.3     1  UNL1        0.0000
     22 C           7.0628   -2.1382    0.0000 C.3     1  UNL1        0.1520
     23 C           6.1968   -2.6382    0.0000 C.3     1  UNL1        0.0329
     24 C           9.4586   -3.1382    0.0000 C.3     1  UNL1        0.0024
     25 C           6.1808   -5.7075    0.0000 C.3     1  UNL1        0.0001
     26 C           4.3433   -5.7364    0.0000 C.3     1  UNL1        0.0282
     27 C           7.7056   -4.9042    0.0000 C.3     1  UNL1        0.0000
     28 C           8.2709   -4.5779    0.0000 C.3     1  UNL1        0.0001
     29 C           4.3599   -3.5810    0.0000 C.3     1  UNL1        0.0026
     30 C           9.1857   -1.3829    0.0000 C.3     1  UNL1        0.0957
     31 C           3.4037   -5.1939    0.0000 C.3     1  UNL1        0.1519
     32 C           3.4120   -4.1089    0.0000 C.3     1  UNL1        0.0329
     33 C           4.8467   -6.6005    0.0000 C.3     1  UNL1        0.0025
     34 C           3.8467   -6.6043    0.0000 C.3     1  UNL1        0.0025
     35 C          10.1362   -1.6936    0.0000 C.3     1  UNL1        0.0319
     36 C           8.2352   -1.0723    0.0000 C.3     1  UNL1        0.0297
     37 C          10.3424   -2.6721    0.0000 C.3     1  UNL1        0.0278
     38 C          10.4749   -0.2262    0.0000 C.3     1  UNL1        0.2693
     39 C          11.1427   -0.9705    0.0000 C.3     1  UNL1        0.2406
     40 C          11.2930   -2.9828    0.0000 C.2     1  UNL1       -0.0345
     41 C          12.1212   -0.7643    0.0000 C.3     1  UNL1        0.2198
     42 C          11.7640    0.9305    0.0000 C.3     1  UNL1        0.1802
     43 C          12.4319    0.1862    0.0000 C.3     1  UNL1        0.2143
     44 C          11.4992   -3.9613    0.0000 C.2     1  UNL1       -0.0478
     45 C          12.0747    1.8810    0.0000 C.3     1  UNL1        0.1770
     46 C          10.7549   -4.6291    0.0000 C.3     1  UNL1        0.0260
     47 C          12.4497   -4.2719    0.0000 C.3     1  UNL1        0.0260
     48 C          11.7175    3.5759    0.0000 C.3     1  UNL1        0.2695
     49 C          11.0497    4.3202    0.0000 C.3     1  UNL1        0.2406
     50 C          11.3603    5.2707    0.0000 C.3     1  UNL1        0.2198
     51 C          13.0067    4.7326    0.0000 C.3     1  UNL1        0.1803
     52 C          12.3388    5.4769    0.0000 C.3     1  UNL1        0.2143
@<TRIPOS>BOND
     1     1    22    1
     2     2    30    1
     3     3    31    1
     4     4    38    1
     5     4    42    1
     6     8    45    1
     7     9    48    1
     8     9    51    1
     9    13    14    1
    10    13    15    1
    11    13    21    1
    12    13    27    1
    13    14    16    1
    14    14    20    1
    15    14    28    1
    16    15    17    1
    17    15    23    1
    18    16    18    1
    19    16    22    1
    20    17    19    1
    21    17    29    1
    22    18    24    1
    23    18    30    1
    24    19    25    1
    25    19    26    1
    26    20    24    1
    27    21    25    1
    28    22    23    1
    29    26    31    1
    30    26    33    1
    31    26    34    1
    32    29    32    1
    33    30    35    1
    34    30    36    1
    35    31    32    1
    36    35    37    1
    37    37    40    1
    38    38     2    1
    39    38    39    1
    40    39     5    1
    41    39    41    1
    42    40    44    2
    43    41     6    1
    44    41    43    1
    45    42    43    1
    46    42    45    1
    47    43     7    1
    48    44    46    1
    49    44    47    1
    50    48     8    1
    51    48    49    1
    52    49    10    1
    53    49    50    1
    54    50    11    1
    55    50    52    1
    56    51    52    1
    57    52    12    1
