@<TRIPOS>MOLECULE
IMPHY003332
 46 48 0 0 0
SMALL
GASTEIGER

@<TRIPOS>ATOM
      1 O           3.5836    1.6751    0.0000 O.3     1  UNL1       -0.4567
      2 O           5.3958   -1.1296    0.0000 O.3     1  UNL1       -0.4573
      3 O           7.1799    2.9188    0.0000 O.3     1  UNL1       -0.4605
      4 O           2.0000    0.8704    0.0000 O.2     1  UNL1       -0.2453
      5 O           6.2740    4.4396    0.0000 O.2     1  UNL1       -0.2453
      6 O           7.1279   -1.1296    0.0000 O.2     1  UNL1       -0.2452
      7 O           7.1279   -4.1296    0.0000 O.3     1  UNL1       -0.3902
      8 C           6.2619    1.3704    0.0000 C.3     1  UNL1        0.0364
      9 C           5.3958    1.8704    0.0000 C.3     1  UNL1        0.0404
     10 C           4.5298    1.3704    0.0000 C.3     1  UNL1        0.1216
     11 C           4.5298    0.3704    0.0000 C.3     1  UNL1        0.0650
     12 C           6.2619    0.3704    0.0000 C.3     1  UNL1       -0.0021
     13 C           5.3958   -0.1296    0.0000 C.3     1  UNL1        0.1147
     14 C           7.1719    1.8772    0.0000 C.3     1  UNL1        0.1026
     15 C           5.3798    2.9119    0.0000 C.2     1  UNL1        0.0370
     16 C           3.5836    0.0656    0.0000 C.2     1  UNL1        0.0396
     17 C           7.1279    0.8704    0.0000 C.2     1  UNL1       -0.0809
     18 C           3.0000    0.8704    0.0000 C.2     1  UNL1        0.3354
     19 C           6.2778    3.4396    0.0000 C.2     1  UNL1        0.3350
     20 C           4.5080    3.4018    0.0000 C.2     1  UNL1       -0.0883
     21 C           3.2729   -0.8849    0.0000 C.2     1  UNL1       -0.0882
     22 C           7.9939    1.3704    0.0000 C.2     1  UNL1       -0.1020
     23 C           6.2619   -1.6296    0.0000 C.2     1  UNL1        0.3371
     24 C           6.2619   -2.6296    0.0000 C.2     1  UNL1        0.0546
     25 C           7.1279   -3.1296    0.0000 C.3     1  UNL1        0.0754
     26 C           5.3958   -3.1296    0.0000 C.2     1  UNL1       -0.0865
     27 H           6.1287    2.3010    0.0000 H       1  UNL1        0.0397
     28 H           4.4399    2.2156    0.0000 H       1  UNL1        0.0748
     29 H           4.4399   -0.4749    0.0000 H       1  UNL1        0.0423
     30 H           6.4739   -0.2122    0.0000 H       1  UNL1        0.0311
     31 H           6.8725    0.4780    0.0000 H       1  UNL1        0.0311
     32 H           5.9328   -0.4396    0.0000 H       1  UNL1        0.0741
     33 H           7.3764    1.2919    0.0000 H       1  UNL1        0.0706
     34 H           7.7835    1.9786    0.0000 H       1  UNL1        0.0706
     35 H           7.1279    0.2504    0.0000 H       1  UNL1        0.0573
     36 H           4.5009    4.0218    0.0000 H       1  UNL1        0.0540
     37 H           3.9747    3.0856    0.0000 H       1  UNL1        0.0540
     38 H           2.6663   -1.0127    0.0000 H       1  UNL1        0.0540
     39 H           3.6870   -1.3464    0.0000 H       1  UNL1        0.0540
     40 H           8.5309    1.0604    0.0000 H       1  UNL1        0.0532
     41 H           7.9939    1.9904    0.0000 H       1  UNL1        0.0532
     42 H           7.7385   -3.2373    0.0000 H       1  UNL1        0.0609
     43 H           7.3400   -2.5470    0.0000 H       1  UNL1        0.0609
     44 H           4.8589   -2.8196    0.0000 H       1  UNL1        0.0540
     45 H           5.3958   -3.7496    0.0000 H       1  UNL1        0.0540
     46 H           7.6648   -4.4396    0.0000 H       1  UNL1        0.2099
@<TRIPOS>BOND
     1     1    10    1
     2     1    18    1
     3    13     2    1
     4     2    23    1
     5     3    14    1
     6     3    19    1
     7     4    18    2
     8     5    19    2
     9     6    23    2
    10     7    25    1
    11     7    46    1
    12     8     9    1
    13     8    12    1
    14     8    14    1
    15     8    17    1
    16     9    10    1
    17     9    15    1
    18     9    27    1
    19    10    11    1
    20    10    28    1
    21    11    13    1
    22    11    16    1
    23    11    29    1
    24    12    13    1
    25    12    30    1
    26    12    31    1
    27    13    32    1
    28    14    33    1
    29    14    34    1
    30    15    19    1
    31    15    20    2
    32    16    18    1
    33    16    21    2
    34    17    22    2
    35    17    35    1
    36    20    36    1
    37    20    37    1
    38    21    38    1
    39    21    39    1
    40    22    40    1
    41    22    41    1
    42    23    24    1
    43    24    25    1
    44    24    26    2
    45    25    42    1
    46    25    43    1
    47    26    44    1
    48    26    45    1
