@<TRIPOS>MOLECULE
IMPHY011426
 31 34 0 0 0
SMALL
GASTEIGER

@<TRIPOS>ATOM
      1 O           7.2482    0.3460    0.0000 O.2     1  UNL1       -0.2667
      2 O           2.8641    1.8911    0.0000 O.3     1  UNL1       -0.4914
      3 O           4.6380    2.9153    0.0000 O.3     1  UNL1       -0.5033
      4 N           6.3821   -1.1540    0.0000 N.ar    1  UNL1       -0.2825
      5 C           5.5161   -1.6540    0.0000 C.ar    1  UNL1        0.0643
      6 C           4.6501   -1.1540    0.0000 C.ar    1  UNL1        0.0075
      7 C           4.6501   -0.1540    0.0000 C.ar    1  UNL1        0.0001
      8 C           5.5322   -2.6955    0.0000 C.ar    1  UNL1        0.0009
      9 C           5.5161    0.3460    0.0000 C.ar    1  UNL1        0.0513
     10 C           6.3821   -0.1540    0.0000 C.ar    1  UNL1        0.2636
     11 C           7.0000   -1.9323    0.0000 C.ar    1  UNL1        0.0139
     12 C           6.5202   -2.8026    0.0000 C.ar    1  UNL1       -0.0360
     13 C           3.7401   -1.6608    0.0000 C.ar    1  UNL1       -0.0520
     14 C           3.7401    0.3529    0.0000 C.ar    1  UNL1       -0.0078
     15 C           4.6341   -3.2232    0.0000 C.ar    1  UNL1       -0.0525
     16 C           5.5322    1.3876    0.0000 C.ar    1  UNL1       -0.0036
     17 C           3.7320   -2.7024    0.0000 C.ar    1  UNL1       -0.0605
     18 C           3.7320    1.3945    0.0000 C.ar    1  UNL1        0.1619
     19 C           4.6341    1.9153    0.0000 C.ar    1  UNL1        0.1592
     20 C           2.0000    1.3878    0.0000 C.3     1  UNL1        0.0790
     21 H           7.6179   -1.8806    0.0000 H       1  UNL1        0.0814
     22 H           6.8062   -3.3527    0.0000 H       1  UNL1        0.0639
     23 H           3.2068   -1.3446    0.0000 H       1  UNL1        0.0624
     24 H           3.2068    0.0367    0.0000 H       1  UNL1        0.0662
     25 H           4.6365   -3.8432    0.0000 H       1  UNL1        0.0624
     26 H           6.0726    1.6913    0.0000 H       1  UNL1        0.0663
     27 H           3.1939   -3.0103    0.0000 H       1  UNL1        0.0618
     28 H           5.1761    3.2232    0.0000 H       1  UNL1        0.2923
     29 H           1.6879    1.9236    0.0000 H       1  UNL1        0.0660
     30 H           1.4643    1.0757    0.0000 H       1  UNL1        0.0660
     31 H           2.3121    0.8521    0.0000 H       1  UNL1        0.0660
@<TRIPOS>BOND
     1     1    10    2
     2     2    18    1
     3     2    20    1
     4     3    19    1
     5     3    28    1
     6     4     5   ar
     7     4    10   ar
     8     4    11   ar
     9     5     6   ar
    10     5     8   ar
    11     6     7   ar
    12     6    13   ar
    13     7     9   ar
    14     7    14   ar
    15     8    12   ar
    16     8    15   ar
    17     9    10   ar
    18     9    16   ar
    19    11    12   ar
    20    11    21    1
    21    12    22    1
    22    13    17   ar
    23    13    23    1
    24    14    18   ar
    25    14    24    1
    26    15    17   ar
    27    15    25    1
    28    16    19   ar
    29    16    26    1
    30    17    27    1
    31    18    19   ar
    32    20    29    1
    33    20    30    1
    34    20    31    1
