@<TRIPOS>MOLECULE
IMPHY004847
 84 90 0 0 0
SMALL
GASTEIGER

@<TRIPOS>ATOM
      1 O           9.5801   -0.8267    0.0000 O.3     1  UNL1       -0.4797
      2 O           6.7942   -3.6111    0.0000 O.3     1  UNL1       -0.4811
      3 O           5.8505   -1.1393    0.0000 O.3     1  UNL1       -0.3868
      4 O          11.3503    1.2321    0.0000 O.3     1  UNL1       -0.4534
      5 O           5.9541   -0.2920    0.0000 O.3     1  UNL1       -0.5062
      6 O           7.8201    2.2080    0.0000 O.3     1  UNL1       -0.5063
      7 O           9.9024   -1.6495    0.0000 O.3     1  UNL1       -0.5062
      8 O          10.1030   -4.8412    0.0000 O.3     1  UNL1       -0.5065
      9 O           2.8961   -1.6602    0.0000 O.3     1  UNL1       -0.5032
     10 O           3.4977   -5.0718    0.0000 O.3     1  UNL1       -0.5032
     11 O           2.2120   -3.5396    0.0000 O.3     1  UNL1       -0.5009
     12 O          12.2066   -3.3195    0.0000 O.3     1  UNL1       -0.5033
     13 O          10.4785    2.7288    0.0000 O.2     1  UNL1       -0.2449
     14 O          13.9425   -2.3262    0.0000 O.3     1  UNL1       -0.5033
     15 O          13.0669    5.2388    0.0000 O.3     1  UNL1       -0.5032
     16 O          14.8105    2.2455    0.0000 O.3     1  UNL1       -0.5032
     17 O          14.8028    4.2455    0.0000 O.3     1  UNL1       -0.5009
     18 C           7.4782   -1.7317    0.0000 C.3     1  UNL1        0.0528
     19 C           6.4933   -1.9054    0.0000 C.3     1  UNL1        0.1074
     20 C           7.8201   -0.7920    0.0000 C.ar    1  UNL1        0.0463
     21 C           6.1513   -2.8451    0.0000 C.3     1  UNL1        0.1520
     22 C           8.1209   -2.4978    0.0000 C.ar    1  UNL1        0.0461
     23 C           8.6862   -0.2920    0.0000 C.ar    1  UNL1        0.1356
     24 C          10.4862    0.7288    0.0000 C.3     1  UNL1        0.1483
     25 C           8.6862    0.7080    0.0000 C.ar    1  UNL1        0.0398
     26 C          10.4862   -0.3128    0.0000 C.3     1  UNL1        0.1623
     27 C           9.5801    1.2426    0.0000 C.3     1  UNL1        0.0204
     28 C           7.7789   -3.4374    0.0000 C.ar    1  UNL1        0.1323
     29 C           6.9541   -0.2920    0.0000 C.ar    1  UNL1        0.1277
     30 C           5.1665   -3.0187    0.0000 C.ar    1  UNL1        0.0023
     31 C           7.8201    1.2080    0.0000 C.ar    1  UNL1        0.1271
     32 C           9.1438   -2.3011    0.0000 C.ar    1  UNL1        0.1276
     33 C          11.3503   -0.8162    0.0000 C.ar    1  UNL1       -0.0001
     34 C           6.9541    0.7080    0.0000 C.ar    1  UNL1        0.0221
     35 C           8.4360   -4.2456    0.0000 C.ar    1  UNL1        0.0221
     36 C           9.8195   -3.0938    0.0000 C.ar    1  UNL1        0.0218
     37 C           4.8245   -3.9584    0.0000 C.ar    1  UNL1       -0.0095
     38 C           4.5237   -2.2526    0.0000 C.ar    1  UNL1       -0.0095
     39 C           9.4632   -4.0726    0.0000 C.ar    1  UNL1        0.1238
     40 C          11.3464   -1.8162    0.0000 C.ar    1  UNL1       -0.0097
     41 C          12.2182   -0.3195    0.0000 C.ar    1  UNL1       -0.0513
     42 C           3.5389   -2.4263    0.0000 C.ar    1  UNL1        0.1623
     43 C           3.8397   -4.1321    0.0000 C.ar    1  UNL1        0.1623
     44 C          11.3464    2.2321    0.0000 C.2     1  UNL1        0.3398
     45 C           3.1969   -3.3660    0.0000 C.ar    1  UNL1        0.2006
     46 C          12.2105   -2.3195    0.0000 C.ar    1  UNL1        0.1586
     47 C          13.0823   -0.8228    0.0000 C.ar    1  UNL1       -0.0162
     48 C          13.0784   -1.8228    0.0000 C.ar    1  UNL1        0.1582
     49 C          12.2105    2.7355    0.0000 C.ar    1  UNL1        0.0661
     50 C          13.0784    2.2388    0.0000 C.ar    1  UNL1       -0.0023
     51 C          12.2066    3.7355    0.0000 C.ar    1  UNL1       -0.0023
     52 C          13.0707    4.2388    0.0000 C.ar    1  UNL1        0.1628
     53 C          13.9425    2.7421    0.0000 C.ar    1  UNL1        0.1628
     54 C          13.9387    3.7421    0.0000 C.ar    1  UNL1        0.2006
     55 H           6.9318   -1.0806    0.0000 H       1  UNL1        0.0429
     56 H           5.8827   -2.0130    0.0000 H       1  UNL1        0.0643
     57 H           5.9393   -3.4277    0.0000 H       1  UNL1        0.0811
     58 H          11.0237    0.4198    0.0000 H       1  UNL1        0.0778
     59 H          11.0237   -0.0039    0.0000 H       1  UNL1        0.0822
     60 H           9.9737    1.7217    0.0000 H       1  UNL1        0.0353
     61 H           9.1755    1.7124    0.0000 H       1  UNL1        0.0353
     62 H           6.4172    1.0180    0.0000 H       1  UNL1        0.0691
     63 H           5.2399   -1.2469    0.0000 H       1  UNL1        0.2100
     64 H           8.2173   -4.8257    0.0000 H       1  UNL1        0.0691
     65 H          10.4296   -2.9838    0.0000 H       1  UNL1        0.0691
     66 H           5.2230   -4.4334    0.0000 H       1  UNL1        0.0659
     67 H           4.7357   -1.6700    0.0000 H       1  UNL1        0.0659
     68 H          10.8083   -2.1241    0.0000 H       1  UNL1        0.0659
     69 H          12.2206    0.3005    0.0000 H       1  UNL1        0.0623
     70 H           5.6441    0.2450    0.0000 H       1  UNL1        0.2921
     71 H           7.2832    2.5180    0.0000 H       1  UNL1        0.2921
     72 H          10.4874   -1.8548    0.0000 H       1  UNL1        0.2921
     73 H          13.6204   -0.5149    0.0000 H       1  UNL1        0.0655
     74 H           9.8887   -5.4229    0.0000 H       1  UNL1        0.2921
     75 H           2.2855   -1.7679    0.0000 H       1  UNL1        0.2923
     76 H           3.8962   -5.5467    0.0000 H       1  UNL1        0.2923
     77 H           2.0000   -4.1223    0.0000 H       1  UNL1        0.2924
     78 H          12.7424   -3.6316    0.0000 H       1  UNL1        0.2923
     79 H          13.0808    1.6188    0.0000 H       1  UNL1        0.0663
     80 H          11.6685    4.0434    0.0000 H       1  UNL1        0.0663
     81 H          14.4807   -2.0182    0.0000 H       1  UNL1        0.2923
     82 H          12.5287    5.5467    0.0000 H       1  UNL1        0.2923
     83 H          15.3462    2.5576    0.0000 H       1  UNL1        0.2923
     84 H          14.8004    4.8655    0.0000 H       1  UNL1        0.2924
@<TRIPOS>BOND
     1     1    23    1
     2     1    26    1
     3     2    21    1
     4     2    28    1
     5    19     3    1
     6     3    63    1
     7    24     4    1
     8     4    44    1
     9     5    29    1
    10     5    70    1
    11     6    31    1
    12     6    71    1
    13     7    32    1
    14     7    72    1
    15     8    39    1
    16     8    74    1
    17     9    42    1
    18     9    75    1
    19    10    43    1
    20    10    76    1
    21    11    45    1
    22    11    77    1
    23    12    46    1
    24    12    78    1
    25    13    44    2
    26    14    48    1
    27    14    81    1
    28    15    52    1
    29    15    82    1
    30    16    53    1
    31    16    83    1
    32    17    54    1
    33    17    84    1
    34    18    19    1
    35    18    20    1
    36    18    22    1
    37    18    55    1
    38    19    21    1
    39    19    56    1
    40    20    23   ar
    41    20    29   ar
    42    21    30    1
    43    21    57    1
    44    22    28   ar
    45    22    32   ar
    46    23    25   ar
    47    24    26    1
    48    24    27    1
    49    24    58    1
    50    25    27    1
    51    25    31   ar
    52    26    33    1
    53    26    59    1
    54    27    60    1
    55    27    61    1
    56    28    35   ar
    57    29    34   ar
    58    30    37   ar
    59    30    38   ar
    60    31    34   ar
    61    32    36   ar
    62    33    40   ar
    63    33    41   ar
    64    34    62    1
    65    35    39   ar
    66    35    64    1
    67    36    39   ar
    68    36    65    1
    69    37    43   ar
    70    37    66    1
    71    38    42   ar
    72    38    67    1
    73    40    46   ar
    74    40    68    1
    75    41    47   ar
    76    41    69    1
    77    42    45   ar
    78    43    45   ar
    79    44    49    1
    80    46    48   ar
    81    47    48   ar
    82    47    73    1
    83    49    50   ar
    84    49    51   ar
    85    50    53   ar
    86    50    79    1
    87    51    52   ar
    88    51    80    1
    89    52    54   ar
    90    53    54   ar
