@<TRIPOS>MOLECULE
IMPHY010221
 38 40 0 0 0
SMALL
GASTEIGER

@<TRIPOS>ATOM
      1 O           4.8147    2.1206    0.0000 O.3     1  UNL1       -0.4641
      2 O           3.0934    2.5818    0.0000 O.2     1  UNL1       -0.2505
      3 C           4.6456    0.5114    0.0000 C.3     1  UNL1        0.0105
      4 C           3.7320    0.9182    0.0000 C.3     1  UNL1        0.0666
      5 C           5.3147    1.2546    0.0000 C.3     1  UNL1        0.0963
      6 C           4.8535   -0.4667    0.0000 C.3     1  UNL1       -0.0210
      7 C           2.8660    0.4182    0.0000 C.3     1  UNL1       -0.0144
      8 C           3.8366    1.9127    0.0000 C.2     1  UNL1        0.3109
      9 C           5.8046   -0.7757    0.0000 C.ar    1  UNL1       -0.0470
     10 C           2.8660   -0.5818    0.0000 C.ar    1  UNL1       -0.0466
     11 C           6.0125   -1.7539    0.0000 C.ar    1  UNL1       -0.0586
     12 C           6.5477   -0.1066    0.0000 C.ar    1  UNL1       -0.0586
     13 C           2.0000   -1.0818    0.0000 C.ar    1  UNL1       -0.0586
     14 C           3.7320   -1.0818    0.0000 C.ar    1  UNL1       -0.0586
     15 C           6.9635   -2.0629    0.0000 C.ar    1  UNL1       -0.0615
     16 C           7.4988   -0.4156    0.0000 C.ar    1  UNL1       -0.0615
     17 C           2.0000   -2.0818    0.0000 C.ar    1  UNL1       -0.0615
     18 C           3.7320   -2.0818    0.0000 C.ar    1  UNL1       -0.0615
     19 C           7.7067   -1.3938    0.0000 C.ar    1  UNL1       -0.0617
     20 C           2.8660   -2.5818    0.0000 C.ar    1  UNL1       -0.0617
     21 H           4.1638    0.1213    0.0000 H       1  UNL1        0.0345
     22 H           3.7645    0.2990    0.0000 H       1  UNL1        0.0420
     23 H           5.7296    0.7938    0.0000 H       1  UNL1        0.0700
     24 H           5.8163    1.6190    0.0000 H       1  UNL1        0.0700
     25 H           4.2339   -0.4883    0.0000 H       1  UNL1        0.0317
     26 H           4.7672   -1.0807    0.0000 H       1  UNL1        0.0317
     27 H           2.6540    1.0008    0.0000 H       1  UNL1        0.0321
     28 H           2.2554    0.3105    0.0000 H       1  UNL1        0.0321
     29 H           5.5517   -2.1687    0.0000 H       1  UNL1        0.0620
     30 H           6.4188    0.4999    0.0000 H       1  UNL1        0.0620
     31 H           1.4631   -0.7718    0.0000 H       1  UNL1        0.0620
     32 H           4.2690   -0.7718    0.0000 H       1  UNL1        0.0620
     33 H           7.0924   -2.6693    0.0000 H       1  UNL1        0.0618
     34 H           7.9595   -0.0008    0.0000 H       1  UNL1        0.0618
     35 H           1.4631   -2.3918    0.0000 H       1  UNL1        0.0618
     36 H           4.2690   -2.3918    0.0000 H       1  UNL1        0.0618
     37 H           8.2963   -1.5854    0.0000 H       1  UNL1        0.0618
     38 H           2.8660   -3.2018    0.0000 H       1  UNL1        0.0618
@<TRIPOS>BOND
     1     1     5    1
     2     1     8    1
     3     2     8    2
     4     3     4    1
     5     3     5    1
     6     3     6    1
     7     3    21    1
     8     4     7    1
     9     4     8    1
    10     4    22    1
    11     5    23    1
    12     5    24    1
    13     6     9    1
    14     6    25    1
    15     6    26    1
    16     7    10    1
    17     7    27    1
    18     7    28    1
    19     9    11   ar
    20     9    12   ar
    21    10    13   ar
    22    10    14   ar
    23    11    15   ar
    24    11    29    1
    25    12    16   ar
    26    12    30    1
    27    13    17   ar
    28    13    31    1
    29    14    18   ar
    30    14    32    1
    31    15    19   ar
    32    15    33    1
    33    16    19   ar
    34    16    34    1
    35    17    20   ar
    36    17    35    1
    37    18    20   ar
    38    18    36    1
    39    19    37    1
    40    20    38    1
