@<TRIPOS>MOLECULE
IMPHY003277
 68 73 0 0 0
SMALL
GASTEIGER

@<TRIPOS>ATOM
      1 O           7.7848    2.1525    0.0000 O.3     1  UNL1       -0.3683
      2 O          11.1012    1.5351    0.0000 O.3     1  UNL1       -0.4576
      3 O           2.9755   -0.6637    0.0000 O.2     1  UNL1       -0.2918
      4 O          11.9405    3.1071    0.0000 O.2     1  UNL1       -0.2452
      5 C           6.5251   -0.7208    0.0000 C.3     1  UNL1       -0.0257
      6 C           6.5251   -1.7208    0.0000 C.3     1  UNL1       -0.0320
      7 C           7.4714   -0.4160    0.0000 C.3     1  UNL1       -0.0271
      8 C           5.6591   -2.2208    0.0000 C.3     1  UNL1       -0.0302
      9 C           4.7931   -1.7208    0.0000 C.3     1  UNL1       -0.0215
     10 C           5.6591   -0.2208    0.0000 C.3     1  UNL1       -0.0468
     11 C           7.4714   -2.0255    0.0000 C.3     1  UNL1       -0.0492
     12 C           8.0550   -1.2208    0.0000 C.3     1  UNL1       -0.0490
     13 C           4.7931   -0.7208    0.0000 C.3     1  UNL1       -0.0482
     14 C           7.7820    0.5345    0.0000 C.3     1  UNL1        0.0230
     15 C           3.8831   -2.2276    0.0000 C.3     1  UNL1        0.0544
     16 C           6.5251    0.2792    0.0000 C.3     1  UNL1       -0.0590
     17 C           5.6752   -3.2623    0.0000 C.3     1  UNL1       -0.0311
     18 C           9.2164    0.7116    0.0000 C.3     1  UNL1        0.1115
     19 C           3.8751   -3.2692    0.0000 C.2     1  UNL1       -0.0562
     20 C           7.1956    1.3445    0.0000 C.3     1  UNL1        0.0553
     21 C           4.7771   -3.7900    0.0000 C.2     1  UNL1       -0.0832
     22 C          10.1809   -0.0485    0.0000 C.3     1  UNL1        0.0180
     23 C           3.8908   -1.2276    0.0000 C.3     1  UNL1       -0.0485
     24 C           2.9562   -1.6635    0.0000 C.2     1  UNL1        0.1659
     25 C           9.2181    1.7116    0.0000 C.3     1  UNL1        0.1010
     26 C           2.9396   -3.8190    0.0000 C.3     1  UNL1       -0.0122
     27 C           2.0084   -2.1915    0.0000 C.2     1  UNL1       -0.0220
     28 C          10.1754    2.8621    0.0000 C.2     1  UNL1        0.0608
     29 C           2.0000   -3.2764    0.0000 C.2     1  UNL1       -0.0767
     30 C           9.2198    2.7116    0.0000 C.3     1  UNL1       -0.0313
     31 C          11.1204    2.5349    0.0000 C.2     1  UNL1        0.3376
     32 C           9.8847    3.8190    0.0000 C.2     1  UNL1       -0.0859
     33 H           6.5908   -2.3373    0.0000 H       1  UNL1        0.0309
     34 H           8.3111   -0.2842    0.0000 H       1  UNL1        0.0311
     35 H           6.1984   -2.5266    0.0000 H       1  UNL1        0.0310
     36 H           5.3300   -1.4108    0.0000 H       1  UNL1        0.0316
     37 H           6.0576    0.2542    0.0000 H       1  UNL1        0.0271
     38 H           5.2606    0.2542    0.0000 H       1  UNL1        0.0271
     39 H           7.2203   -2.5924    0.0000 H       1  UNL1        0.0268
     40 H           8.0087   -2.3347    0.0000 H       1  UNL1        0.0268
     41 H           8.5158   -1.6355    0.0000 H       1  UNL1        0.0268
     42 H           8.5158   -0.8060    0.0000 H       1  UNL1        0.0268
     43 H           4.5810   -0.1382    0.0000 H       1  UNL1        0.0269
     44 H           4.1825   -0.8284    0.0000 H       1  UNL1        0.0269
     45 H           7.1695    0.4385    0.0000 H       1  UNL1        0.0362
     46 H           7.1451    0.2792    0.0000 H       1  UNL1        0.0235
     47 H           6.5251    0.8992    0.0000 H       1  UNL1        0.0235
     48 H           5.9051    0.2792    0.0000 H       1  UNL1        0.0235
     49 H           5.8932   -3.8427    0.0000 H       1  UNL1        0.0310
     50 H           6.2843   -3.1468    0.0000 H       1  UNL1        0.0310
     51 H           9.0525    1.3096    0.0000 H       1  UNL1        0.0738
     52 H           6.7356    1.7602    0.0000 H       1  UNL1        0.0564
     53 H           6.7342    0.9304    0.0000 H       1  UNL1        0.0564
     54 H           4.7795   -4.4100    0.0000 H       1  UNL1        0.0572
     55 H          10.0106   -0.6447    0.0000 H       1  UNL1        0.0332
     56 H          10.7970    0.0203    0.0000 H       1  UNL1        0.0332
     57 H           4.5108   -1.2324    0.0000 H       1  UNL1        0.0242
     58 H           3.8956   -0.6077    0.0000 H       1  UNL1        0.0242
     59 H           3.2708   -1.2229    0.0000 H       1  UNL1        0.0242
     60 H           2.5423   -4.2949    0.0000 H       1  UNL1        0.0353
     61 H           3.3406   -4.2918    0.0000 H       1  UNL1        0.0353
     62 H           1.4750   -1.8753    0.0000 H       1  UNL1        0.0649
     63 H           1.4619   -3.5844    0.0000 H       1  UNL1        0.0576
     64 H           9.8398    2.7105    0.0000 H       1  UNL1        0.0261
     65 H           9.2209    3.3316    0.0000 H       1  UNL1        0.0261
     66 H           8.5998    2.7127    0.0000 H       1  UNL1        0.0261
     67 H          10.3083    4.2716    0.0000 H       1  UNL1        0.0541
     68 H           9.2809    3.9595    0.0000 H       1  UNL1        0.0541
@<TRIPOS>BOND
     1     1    20    1
     2     1    25    1
     3     2    18    1
     4     2    31    1
     5     3    24    2
     6     4    31    2
     7     5     6    1
     8     5     7    1
     9     5    10    1
    10     5    16    1
    11     6     8    1
    12     6    11    1
    13     6    33    1
    14     7    12    1
    15     7    14    1
    16     7    34    1
    17     8     9    1
    18     8    17    1
    19     8    35    1
    20     9    13    1
    21     9    15    1
    22     9    36    1
    23    10    13    1
    24    10    37    1
    25    10    38    1
    26    11    12    1
    27    11    39    1
    28    11    40    1
    29    12    41    1
    30    12    42    1
    31    13    43    1
    32    13    44    1
    33    14    18    1
    34    14    20    1
    35    14    45    1
    36    15    19    1
    37    15    23    1
    38    15    24    1
    39    16    46    1
    40    16    47    1
    41    16    48    1
    42    17    21    1
    43    17    49    1
    44    17    50    1
    45    18    22    1
    46    18    51    1
    47    19    21    2
    48    19    26    1
    49    20    52    1
    50    20    53    1
    51    21    54    1
    52    22    25    1
    53    22    55    1
    54    22    56    1
    55    23    57    1
    56    23    58    1
    57    23    59    1
    58    24    27    1
    59    25    28    1
    60    25    30    1
    61    26    29    1
    62    26    60    1
    63    26    61    1
    64    27    29    2
    65    27    62    1
    66    28    31    1
    67    28    32    2
    68    29    63    1
    69    30    64    1
    70    30    65    1
    71    30    66    1
    72    32    67    1
    73    32    68    1
