@<TRIPOS>MOLECULE
IMPHY012396
 76 78 0 0 0
SMALL
GASTEIGER

@<TRIPOS>ATOM
      1 O           3.5000    1.1336    0.0000 O.3     1  UNL1       -0.4569
      2 O           4.1756    2.7646    0.0000 O.3     1  UNL1       -0.4533
      3 O           8.2185    3.5456    0.0000 O.3     1  UNL1       -0.4571
      4 O           5.2713   -2.8349    0.0000 O.3     1  UNL1       -0.4571
      5 O           3.5000    2.8656    0.0000 O.2     1  UNL1       -0.2512
      6 O           5.4003    3.9893    0.0000 O.2     1  UNL1       -0.2511
      7 O           9.4433    2.3208    0.0000 O.2     1  UNL1       -0.2511
      8 O           3.5550   -3.0676    0.0000 O.2     1  UNL1       -0.2511
      9 C           4.8827    0.2097    0.0000 C.3     1  UNL1        0.0156
     10 C           5.8066   -0.1730    0.0000 C.3     1  UNL1       -0.0075
     11 C           7.1131    1.1336    0.0000 C.3     1  UNL1       -0.0279
     12 C           6.7304    2.0575    0.0000 C.3     1  UNL1       -0.0070
     13 C           6.7304    0.2097    0.0000 C.3     1  UNL1       -0.0420
     14 C           4.5000    1.1336    0.0000 C.3     1  UNL1        0.1495
     15 C           5.8066    2.4402    0.0000 C.2     1  UNL1       -0.0177
     16 C           4.0466   -0.4116    0.0000 C.3     1  UNL1       -0.0399
     17 C           4.8827    2.0575    0.0000 C.3     1  UNL1        0.1622
     18 C           7.7862    1.8753    0.0000 C.3     1  UNL1       -0.0081
     19 C           5.9584   -1.2035    0.0000 C.2     1  UNL1       -0.0329
     20 C           4.1746   -1.4453    0.0000 C.3     1  UNL1       -0.0111
     21 C           7.5114    2.8384    0.0000 C.3     1  UNL1        0.1245
     22 C           3.9588    0.5924    0.0000 C.3     1  UNL1       -0.0555
     23 C           5.1370   -1.8439    0.0000 C.3     1  UNL1        0.1242
     24 C           6.5483    3.1133    0.0000 C.2     1  UNL1       -0.0293
     25 C           7.0281    3.1683    0.0000 C.3     1  UNL1       -0.0557
     26 C           7.8413    2.3551    0.0000 C.3     1  UNL1       -0.0557
     27 C           6.3208    4.0870    0.0000 C.3     1  UNL1       -0.0399
     28 C           6.8867   -1.5754    0.0000 C.2     1  UNL1       -0.0957
     29 C           3.0000    1.9996    0.0000 C.2     1  UNL1        0.3043
     30 C           4.4344    3.7305    0.0000 C.2     1  UNL1        0.3046
     31 C           9.1845    3.2867    0.0000 C.2     1  UNL1        0.3045
     32 C           4.4803   -3.4467    0.0000 C.2     1  UNL1        0.3045
     33 C           2.0000    1.9996    0.0000 C.3     1  UNL1        0.0332
     34 C           3.7273    4.4376    0.0000 C.3     1  UNL1        0.0333
     35 C           9.8916    3.9938    0.0000 C.3     1  UNL1        0.0333
     36 C           4.6146   -4.4376    0.0000 C.3     1  UNL1        0.0333
     37 H           6.5919   -0.4983    0.0000 H       1  UNL1        0.0353
     38 H           7.4384    0.3483    0.0000 H       1  UNL1        0.0310
     39 H           6.8114   -0.4050    0.0000 H       1  UNL1        0.0274
     40 H           7.3451    0.1288    0.0000 H       1  UNL1        0.0274
     41 H           4.1556    1.6491    0.0000 H       1  UNL1        0.0781
     42 H           3.7674    0.1420    0.0000 H       1  UNL1        0.0273
     43 H           3.4534   -0.5919    0.0000 H       1  UNL1        0.0273
     44 H           5.0036    2.6656    0.0000 H       1  UNL1        0.0820
     45 H           8.1607    1.3812    0.0000 H       1  UNL1        0.0307
     46 H           8.3409    2.1523    0.0000 H       1  UNL1        0.0307
     47 H           3.5554   -1.4151    0.0000 H       1  UNL1        0.0304
     48 H           4.0389   -2.0503    0.0000 H       1  UNL1        0.0304
     49 H           8.1116    2.6828    0.0000 H       1  UNL1        0.0782
     50 H           4.1961    1.1652    0.0000 H       1  UNL1        0.0236
     51 H           3.3860    0.8297    0.0000 H       1  UNL1        0.0236
     52 H           3.7215    0.0196    0.0000 H       1  UNL1        0.0236
     53 H           5.7111   -2.0779    0.0000 H       1  UNL1        0.0782
     54 H           7.6270    3.0078    0.0000 H       1  UNL1        0.0238
     55 H           7.1886    3.7672    0.0000 H       1  UNL1        0.0238
     56 H           6.4292    3.3288    0.0000 H       1  UNL1        0.0238
     57 H           8.0017    1.7562    0.0000 H       1  UNL1        0.0238
     58 H           8.4401    2.5156    0.0000 H       1  UNL1        0.0238
     59 H           7.6808    2.9540    0.0000 H       1  UNL1        0.0238
     60 H           6.9245    4.2281    0.0000 H       1  UNL1        0.0276
     61 H           6.1797    4.6908    0.0000 H       1  UNL1        0.0276
     62 H           5.7170    3.9460    0.0000 H       1  UNL1        0.0276
     63 H           6.9747   -2.1892    0.0000 H       1  UNL1        0.0536
     64 H           7.3742   -1.1924    0.0000 H       1  UNL1        0.0536
     65 H           2.0000    2.6196    0.0000 H       1  UNL1        0.0342
     66 H           1.3800    1.9996    0.0000 H       1  UNL1        0.0342
     67 H           2.0000    1.3796    0.0000 H       1  UNL1        0.0342
     68 H           4.1657    4.8760    0.0000 H       1  UNL1        0.0342
     69 H           3.2889    4.8760    0.0000 H       1  UNL1        0.0342
     70 H           3.2889    3.9992    0.0000 H       1  UNL1        0.0342
     71 H          10.3300    3.5554    0.0000 H       1  UNL1        0.0342
     72 H          10.3300    4.4322    0.0000 H       1  UNL1        0.0342
     73 H           9.4532    4.4322    0.0000 H       1  UNL1        0.0342
     74 H           4.0003   -4.5209    0.0000 H       1  UNL1        0.0342
     75 H           4.6979   -5.0520    0.0000 H       1  UNL1        0.0342
     76 H           5.2290   -4.3543    0.0000 H       1  UNL1        0.0342
@<TRIPOS>BOND
     1    14     1    1
     2     1    29    1
     3    17     2    1
     4     2    30    1
     5    21     3    1
     6     3    31    1
     7    23     4    1
     8     4    32    1
     9     5    29    2
    10     6    30    2
    11     7    31    2
    12     8    32    2
    13     9    10    1
    14     9    14    1
    15     9    16    1
    16     9    22    1
    17    10    13    1
    18    10    19    1
    19    10    37    1
    20    11    12    1
    21    11    13    1
    22    11    18    1
    23    11    38    1
    24    12    15    1
    25    12    25    1
    26    12    26    1
    27    13    39    1
    28    13    40    1
    29    14    17    1
    30    14    41    1
    31    15    17    1
    32    15    24    2
    33    16    20    1
    34    16    42    1
    35    16    43    1
    36    17    44    1
    37    18    21    1
    38    18    45    1
    39    18    46    1
    40    19    23    1
    41    19    28    2
    42    20    23    1
    43    20    47    1
    44    20    48    1
    45    21    24    1
    46    21    49    1
    47    22    50    1
    48    22    51    1
    49    22    52    1
    50    23    53    1
    51    24    27    1
    52    25    54    1
    53    25    55    1
    54    25    56    1
    55    26    57    1
    56    26    58    1
    57    26    59    1
    58    27    60    1
    59    27    61    1
    60    27    62    1
    61    28    63    1
    62    28    64    1
    63    29    33    1
    64    30    34    1
    65    31    35    1
    66    32    36    1
    67    33    65    1
    68    33    66    1
    69    33    67    1
    70    34    68    1
    71    34    69    1
    72    34    70    1
    73    35    71    1
    74    35    72    1
    75    35    73    1
    76    36    74    1
    77    36    75    1
    78    36    76    1
