@<TRIPOS>MOLECULE
IMPHY013750
 13 13 0 0 0
SMALL
GASTEIGER

@<TRIPOS>ATOM
      1 N           2.8090   -0.2694    0.0000 N.ar    1  UNL1       -0.3562
      2 C           3.6180    0.3184    0.0000 C.ar    1  UNL1        0.0043
      3 C           2.0000    0.3184    0.0000 C.ar    1  UNL1        0.0043
      4 C           2.8090   -1.2694    0.0000 C.3     1  UNL1        0.0113
      5 C           3.3090    1.2694    0.0000 C.ar    1  UNL1       -0.0442
      6 C           2.3090    1.2694    0.0000 C.ar    1  UNL1       -0.0442
      7 H           4.2077    0.1268    0.0000 H       1  UNL1        0.0809
      8 H           1.4103    0.1268    0.0000 H       1  UNL1        0.0809
      9 H           2.1890   -1.2694    0.0000 H       1  UNL1        0.0455
     10 H           2.8090   -1.8894    0.0000 H       1  UNL1        0.0455
     11 H           3.4290   -1.2694    0.0000 H       1  UNL1        0.0455
     12 H           3.6734    1.7710    0.0000 H       1  UNL1        0.0632
     13 H           1.9446    1.7710    0.0000 H       1  UNL1        0.0632
@<TRIPOS>BOND
     1     1     2   ar
     2     1     3   ar
     3     1     4    1
     4     2     5   ar
     5     2     7    1
     6     3     6   ar
     7     3     8    1
     8     4     9    1
     9     4    10    1
    10     4    11    1
    11     5     6   ar
    12     5    12    1
    13     6    13    1
