@<TRIPOS>MOLECULE
IMPHY014206
 73 77 0 0 0
SMALL
GASTEIGER

@<TRIPOS>ATOM
      1 O           5.8527    1.8955    0.0000 O.3     1  UNL1       -0.2183
      2 O           5.8527    2.8955    0.0000 O.3     1  UNL1       -0.2219
      3 O           4.1085    5.9648    0.0000 O.3     1  UNL1       -0.3917
      4 C           4.1046   -0.1737    0.0000 C.3     1  UNL1       -0.0191
      5 C           5.0027    0.3540    0.0000 C.3     1  UNL1        0.0047
      6 C           4.9866    1.3955    0.0000 C.3     1  UNL1        0.1476
      7 C           4.3304   -1.1843    0.0000 C.3     1  UNL1       -0.0290
      8 C           4.1206    2.8955    0.0000 C.3     1  UNL1        0.0278
      9 C           4.1206    1.8955    0.0000 C.2     1  UNL1       -0.0259
     10 C           4.9866    3.3955    0.0000 C.3     1  UNL1        0.1340
     11 C           5.7757   -0.3349    0.0000 C.3     1  UNL1       -0.0461
     12 C           3.2026    0.3471    0.0000 C.3     1  UNL1       -0.0283
     13 C           5.3610   -1.2837    0.0000 C.3     1  UNL1       -0.0488
     14 C           3.2106    1.3887    0.0000 C.2     1  UNL1       -0.0805
     15 C           4.5866    1.9955    0.0000 C.2     1  UNL1       -0.0462
     16 C           3.2106    3.4024    0.0000 C.3     1  UNL1       -0.0384
     17 C           3.2425   -0.6804    0.0000 C.3     1  UNL1       -0.0586
     18 C           3.6683   -1.9337    0.0000 C.3     1  UNL1       -0.0224
     19 C           5.0027    4.4370    0.0000 C.3     1  UNL1        0.0098
     20 C           4.5866    2.7955    0.0000 C.2     1  UNL1       -0.0495
     21 C           3.2546    2.3955    0.0000 C.3     1  UNL1       -0.0527
     22 C           3.2026    4.4440    0.0000 C.3     1  UNL1       -0.0259
     23 C           4.1046    4.9648    0.0000 C.3     1  UNL1        0.0583
     24 C           2.6882   -1.7350    0.0000 C.3     1  UNL1       -0.0587
     25 C           3.9863   -2.8818    0.0000 C.2     1  UNL1       -0.0846
     26 C           3.3242   -3.6312    0.0000 C.2     1  UNL1       -0.0846
     27 C           3.6422   -4.5793    0.0000 C.3     1  UNL1       -0.0234
     28 C           2.9801   -5.3288    0.0000 C.3     1  UNL1       -0.0407
     29 C           4.6222   -4.7780    0.0000 C.3     1  UNL1       -0.0587
     30 C           3.2980   -6.2769    0.0000 C.3     1  UNL1       -0.0621
     31 C           2.0000   -5.1301    0.0000 C.3     1  UNL1       -0.0621
     32 H           5.7756    0.7077    0.0000 H       1  UNL1        0.0342
     33 H           4.6421   -1.9750    0.0000 H       1  UNL1        0.0312
     34 H           6.3146   -0.6415    0.0000 H       1  UNL1        0.0269
     35 H           6.1373    0.1688    0.0000 H       1  UNL1        0.0269
     36 H           2.5926    0.4579    0.0000 H       1  UNL1        0.0313
     37 H           2.9890   -0.2350    0.0000 H       1  UNL1        0.0313
     38 H           5.2370   -1.8912    0.0000 H       1  UNL1        0.0268
     39 H           5.9521   -1.4709    0.0000 H       1  UNL1        0.0268
     40 H           2.6773    1.7049    0.0000 H       1  UNL1        0.0573
     41 H           3.9932    1.8159    0.0000 H       1  UNL1        0.0603
     42 H           2.5990    3.5038    0.0000 H       1  UNL1        0.0275
     43 H           3.0060    2.8171    0.0000 H       1  UNL1        0.0275
     44 H           2.9284   -0.1459    0.0000 H       1  UNL1        0.0235
     45 H           2.7080   -0.9945    0.0000 H       1  UNL1        0.0235
     46 H           3.5566   -1.2149    0.0000 H       1  UNL1        0.0235
     47 H           3.2578   -2.3984    0.0000 H       1  UNL1        0.0343
     48 H           5.6118    4.3216    0.0000 H       1  UNL1        0.0322
     49 H           5.2207    5.0174    0.0000 H       1  UNL1        0.0322
     50 H           3.9932    2.9752    0.0000 H       1  UNL1        0.0600
     51 H           2.9446    2.9325    0.0000 H       1  UNL1        0.0239
     52 H           2.7176    2.0855    0.0000 H       1  UNL1        0.0239
     53 H           3.5646    1.8586    0.0000 H       1  UNL1        0.0239
     54 H           2.9890    5.0260    0.0000 H       1  UNL1        0.0290
     55 H           2.5926    4.3332    0.0000 H       1  UNL1        0.0290
     56 H           3.5683    5.2758    0.0000 H       1  UNL1        0.0594
     57 H           2.8114   -1.1274    0.0000 H       1  UNL1        0.0235
     58 H           2.0806   -1.6119    0.0000 H       1  UNL1        0.0235
     59 H           2.5650   -2.3427    0.0000 H       1  UNL1        0.0235
     60 H           4.5939   -3.0050    0.0000 H       1  UNL1        0.0572
     61 H           3.5728    6.2769    0.0000 H       1  UNL1        0.2098
     62 H           2.7165   -3.5081    0.0000 H       1  UNL1        0.0572
     63 H           4.0526   -4.1147    0.0000 H       1  UNL1        0.0343
     64 H           2.5696   -5.7934    0.0000 H       1  UNL1        0.0301
     65 H           4.4990   -5.3856    0.0000 H       1  UNL1        0.0235
     66 H           5.2299   -4.9012    0.0000 H       1  UNL1        0.0235
     67 H           4.7454   -4.1704    0.0000 H       1  UNL1        0.0235
     68 H           2.7102   -6.4740    0.0000 H       1  UNL1        0.0233
     69 H           3.4952   -6.8647    0.0000 H       1  UNL1        0.0233
     70 H           3.8859   -6.0797    0.0000 H       1  UNL1        0.0233
     71 H           2.1232   -4.5224    0.0000 H       1  UNL1        0.0233
     72 H           1.3924   -5.0069    0.0000 H       1  UNL1        0.0233
     73 H           1.8768   -5.7377    0.0000 H       1  UNL1        0.0233
@<TRIPOS>BOND
     1     1     2    1
     2     6     1    1
     3     2    10    1
     4    23     3    1
     5     3    61    1
     6     4     5    1
     7     4     7    1
     8     4    12    1
     9     4    17    1
    10     5     6    1
    11     5    11    1
    12     5    32    1
    13     6     9    1
    14     6    15    1
    15     7    13    1
    16     7    18    1
    17     7    33    1
    18     8     9    1
    19     8    10    1
    20     8    16    1
    21     8    21    1
    22     9    14    2
    23    10    19    1
    24    10    20    1
    25    11    13    1
    26    11    34    1
    27    11    35    1
    28    12    14    1
    29    12    36    1
    30    12    37    1
    31    13    38    1
    32    13    39    1
    33    14    40    1
    34    15    20    2
    35    15    41    1
    36    16    22    1
    37    16    42    1
    38    16    43    1
    39    17    44    1
    40    17    45    1
    41    17    46    1
    42    18    24    1
    43    18    25    1
    44    18    47    1
    45    19    23    1
    46    19    48    1
    47    19    49    1
    48    20    50    1
    49    21    51    1
    50    21    52    1
    51    21    53    1
    52    22    23    1
    53    22    54    1
    54    22    55    1
    55    23    56    1
    56    24    57    1
    57    24    58    1
    58    24    59    1
    59    25    26    2
    60    25    60    1
    61    26    27    1
    62    26    62    1
    63    27    28    1
    64    27    29    1
    65    27    63    1
    66    28    30    1
    67    28    31    1
    68    28    64    1
    69    29    65    1
    70    29    66    1
    71    29    67    1
    72    30    68    1
    73    30    69    1
    74    30    70    1
    75    31    71    1
    76    31    72    1
    77    31    73    1
