@<TRIPOS>MOLECULE
IMPHY009148
 33 36 0 0 0
SMALL
GASTEIGER

@<TRIPOS>ATOM
      1 O           2.0024   -2.9955    0.0000 O.3     1  UNL1       -0.5067
      2 O           3.7763    3.1188    0.0000 O.3     1  UNL1       -0.4913
      3 O           2.0024    2.0947    0.0000 O.2     1  UNL1       -0.2840
      4 N           5.5204   -0.9504    0.0000 N.ar    1  UNL1       -0.3455
      5 C           4.6544   -1.4504    0.0000 C.ar    1  UNL1        0.0531
      6 C           6.1383   -1.7288    0.0000 C.3     1  UNL1        0.0274
      7 C           5.6585   -2.5990    0.0000 C.3     1  UNL1       -0.0076
      8 C           4.6704   -2.4919    0.0000 C.ar    1  UNL1       -0.0182
      9 C           3.7884   -0.9504    0.0000 C.ar    1  UNL1        0.0101
     10 C           3.7884    0.0496    0.0000 C.ar    1  UNL1       -0.0034
     11 C           5.5204    0.0496    0.0000 C.ar    1  UNL1        0.0129
     12 C           4.6544    0.5496    0.0000 C.ar    1  UNL1        0.0026
     13 C           3.7724   -3.0197    0.0000 C.ar    1  UNL1       -0.0150
     14 C           2.8784   -1.4572    0.0000 C.ar    1  UNL1       -0.0105
     15 C           2.8703   -2.4988    0.0000 C.ar    1  UNL1        0.1178
     16 C           2.8784    0.5564    0.0000 C.ar    1  UNL1       -0.0029
     17 C           4.6704    1.5911    0.0000 C.ar    1  UNL1       -0.0070
     18 C           3.7724    2.1188    0.0000 C.ar    1  UNL1        0.1672
     19 C           2.8703    1.5980    0.0000 C.ar    1  UNL1        0.2208
     20 C           4.6442    3.6155    0.0000 C.3     1  UNL1        0.0790
     21 H           6.6372   -2.0970    0.0000 H       1  UNL1        0.0495
     22 H           6.5690   -1.2827    0.0000 H       1  UNL1        0.0495
     23 H           5.5111   -3.2013    0.0000 H       1  UNL1        0.0331
     24 H           6.2361   -2.8244    0.0000 H       1  UNL1        0.0331
     25 H           6.0573    0.3596    0.0000 H       1  UNL1        0.0815
     26 H           3.7748   -3.6397    0.0000 H       1  UNL1        0.0657
     27 H           2.3450   -1.1411    0.0000 H       1  UNL1        0.0661
     28 H           2.3450    0.2403    0.0000 H       1  UNL1        0.0663
     29 H           5.2109    1.8949    0.0000 H       1  UNL1        0.0662
     30 H           2.0000   -3.6155    0.0000 H       1  UNL1        0.2921
     31 H           4.9521    3.0774    0.0000 H       1  UNL1        0.0660
     32 H           5.1823    3.9234    0.0000 H       1  UNL1        0.0660
     33 H           4.3363    4.1536    0.0000 H       1  UNL1        0.0660
@<TRIPOS>BOND
     1     1    15    1
     2     1    30    1
     3     2    18    1
     4     2    20    1
     5     3    19    2
     6     4     5   ar
     7     4     6    1
     8     4    11   ar
     9     5     8   ar
    10     5     9   ar
    11     6     7    1
    12     6    21    1
    13     6    22    1
    14     7     8    1
    15     7    23    1
    16     7    24    1
    17     8    13   ar
    18     9    10   ar
    19     9    14   ar
    20    10    12    1
    21    10    16   ar
    22    11    12   ar
    23    11    25    1
    24    12    17   ar
    25    13    15   ar
    26    13    26    1
    27    14    15   ar
    28    14    27    1
    29    16    19   ar
    30    16    28    1
    31    17    18   ar
    32    17    29    1
    33    18    19   ar
    34    20    31    1
    35    20    32    1
    36    20    33    1
