@<TRIPOS>MOLECULE
IMPHY004706
 67 71 0 0 0
SMALL
GASTEIGER

@<TRIPOS>ATOM
      1 O           6.8671   -0.2671    0.0000 O.3     1  UNL1       -0.3609
      2 O           6.0010   -2.7671    0.0000 O.3     1  UNL1       -0.3461
      3 O           7.7331   -2.7671    0.0000 O.3     1  UNL1       -0.3865
      4 O           9.4651   -1.7671    0.0000 O.3     1  UNL1       -0.3865
      5 O           9.4651    0.2329    0.0000 O.3     1  UNL1       -0.3862
      6 O           5.1350   -4.2671    0.0000 O.3     1  UNL1       -0.3461
      7 O           4.2690   -1.7671    0.0000 O.3     1  UNL1       -0.3841
      8 O           2.5369   -2.7671    0.0000 O.3     1  UNL1       -0.3864
      9 O           9.4931    1.1983    0.0000 O.2     1  UNL1       -0.4616
     10 O           2.5369   -4.7671    0.0000 O.3     1  UNL1       -0.3869
     11 O           6.0010    1.2329    0.0000 O.3     1  UNL1       -0.5063
     12 O           9.4815    4.2675    0.0000 O.2     1  UNL1       -0.2864
     13 O          13.8555    4.7671    0.0000 O.3     1  UNL1       -0.5068
     14 C           6.8671   -1.2671    0.0000 C.3     1  UNL1        0.1112
     15 C           7.7331   -1.7671    0.0000 C.3     1  UNL1        0.1118
     16 C           8.5991   -1.2671    0.0000 C.3     1  UNL1        0.1121
     17 C           8.5991   -0.2671    0.0000 C.3     1  UNL1        0.1139
     18 C           7.7331    0.2329    0.0000 C.3     1  UNL1        0.1193
     19 C           6.0010   -1.7671    0.0000 C.3     1  UNL1        0.0795
     20 C           7.7331    1.2329    0.0000 C.ar    1  UNL1        0.0679
     21 C           5.1350   -3.2671    0.0000 C.3     1  UNL1        0.1876
     22 C           4.2690   -2.7671    0.0000 C.3     1  UNL1        0.1341
     23 C           3.4030   -3.2671    0.0000 C.3     1  UNL1        0.1137
     24 C           3.4030   -4.2671    0.0000 C.3     1  UNL1        0.1069
     25 C           8.5991    1.7329    0.0000 C.ar    1  UNL1        0.1476
     26 C           4.2690   -4.7671    0.0000 C.3     1  UNL1        0.0792
     27 C           6.8671    1.7329    0.0000 C.ar    1  UNL1        0.1261
     28 C           8.5991    2.7329    0.0000 C.ar    1  UNL1        0.0651
     29 C           6.8671    2.7329    0.0000 C.ar    1  UNL1       -0.0189
     30 C           7.7331    3.2329    0.0000 C.ar    1  UNL1       -0.0439
     31 C           9.4931    3.2676    0.0000 C.ar    1  UNL1        0.2002
     32 C          10.3991    2.7537    0.0000 C.ar    1  UNL1        0.0643
     33 C          10.3991    1.7121    0.0000 C.ar    1  UNL1        0.1039
     34 C          11.2632    3.2571    0.0000 C.ar    1  UNL1       -0.0110
     35 C          12.1312    2.7604    0.0000 C.ar    1  UNL1       -0.0504
     36 C          11.2594    4.2571    0.0000 C.ar    1  UNL1       -0.0504
     37 C          12.9953    3.2638    0.0000 C.ar    1  UNL1       -0.0196
     38 C          12.1235    4.7604    0.0000 C.ar    1  UNL1       -0.0196
     39 C          12.9914    4.2637    0.0000 C.ar    1  UNL1        0.1169
     40 H           6.3301   -0.9571    0.0000 H       1  UNL1        0.0646
     41 H           8.2700   -2.0771    0.0000 H       1  UNL1        0.0647
     42 H           9.1360   -0.9571    0.0000 H       1  UNL1        0.0647
     43 H           8.5991    0.3529    0.0000 H       1  UNL1        0.0649
     44 H           6.9970    0.6579    0.0000 H       1  UNL1        0.0676
     45 H           5.7890   -1.1845    0.0000 H       1  UNL1        0.0587
     46 H           5.3905   -1.8747    0.0000 H       1  UNL1        0.0587
     47 H           5.1350   -2.6471    0.0000 H       1  UNL1        0.0937
     48 H           3.7320   -2.4571    0.0000 H       1  UNL1        0.0671
     49 H           3.9650   -2.6471    0.0000 H       1  UNL1        0.0647
     50 H           3.4030   -4.8871    0.0000 H       1  UNL1        0.0643
     51 H           8.2700   -3.0771    0.0000 H       1  UNL1        0.2100
     52 H           9.4651   -2.3871    0.0000 H       1  UNL1        0.2100
     53 H           3.8705   -5.2420    0.0000 H       1  UNL1        0.0587
     54 H           4.6675   -5.2420    0.0000 H       1  UNL1        0.0587
     55 H          10.0021   -0.0771    0.0000 H       1  UNL1        0.2100
     56 H           6.3301    3.0429    0.0000 H       1  UNL1        0.0654
     57 H           3.7320   -1.4571    0.0000 H       1  UNL1        0.2101
     58 H           7.7331    3.8529    0.0000 H       1  UNL1        0.0627
     59 H           2.0000   -3.0771    0.0000 H       1  UNL1        0.2100
     60 H           2.5369   -5.3871    0.0000 H       1  UNL1        0.2100
     61 H           5.4641    1.5429    0.0000 H       1  UNL1        0.2921
     62 H          10.9349    1.4000    0.0000 H       1  UNL1        0.1037
     63 H          12.1336    2.1404    0.0000 H       1  UNL1        0.0625
     64 H          10.7212    4.5650    0.0000 H       1  UNL1        0.0625
     65 H          13.5334    2.9558    0.0000 H       1  UNL1        0.0654
     66 H          12.1211    5.3804    0.0000 H       1  UNL1        0.0654
     67 H          13.8531    5.3871    0.0000 H       1  UNL1        0.2921
@<TRIPOS>BOND
     1     1    14    1
     2     1    18    1
     3     2    19    1
     4    21     2    1
     5    15     3    1
     6     3    51    1
     7     4    16    1
     8     4    52    1
     9     5    17    1
    10     5    55    1
    11     6    21    1
    12     6    26    1
    13     7    22    1
    14     7    57    1
    15    23     8    1
    16     8    59    1
    17     9    25   ar
    18     9    33   ar
    19    24    10    1
    20    10    60    1
    21    11    27    1
    22    11    61    1
    23    12    31    2
    24    13    39    1
    25    13    67    1
    26    14    15    1
    27    14    19    1
    28    14    40    1
    29    15    16    1
    30    15    41    1
    31    16    17    1
    32    16    42    1
    33    17    18    1
    34    17    43    1
    35    18    20    1
    36    18    44    1
    37    19    45    1
    38    19    46    1
    39    20    25   ar
    40    20    27   ar
    41    21    22    1
    42    21    47    1
    43    22    23    1
    44    22    48    1
    45    23    24    1
    46    23    49    1
    47    24    26    1
    48    24    50    1
    49    25    28   ar
    50    26    53    1
    51    26    54    1
    52    27    29   ar
    53    28    30   ar
    54    28    31   ar
    55    29    30   ar
    56    29    56    1
    57    30    58    1
    58    31    32   ar
    59    32    33   ar
    60    32    34    1
    61    33    62    1
    62    34    35   ar
    63    34    36   ar
    64    35    37   ar
    65    35    63    1
    66    36    38   ar
    67    36    64    1
    68    37    39   ar
    69    37    65    1
    70    38    39   ar
    71    38    66    1
