@<TRIPOS>MOLECULE
IMPHY010014
 29 29 0 0 0
SMALL
GASTEIGER

@<TRIPOS>ATOM
      1 O           7.1485    0.7694    0.0000 O.3     1  UNL1       -0.3483
      2 O           8.9086    0.4907    0.0000 O.3     1  UNL1       -0.3670
      3 C           6.3395    0.1816    0.0000 C.3     1  UNL1        0.0618
      4 C           6.6485   -0.7694    0.0000 C.3     1  UNL1       -0.0219
      5 C           5.3884    0.4907    0.0000 C.3     1  UNL1       -0.0265
      6 C           7.6485   -0.7694    0.0000 C.3     1  UNL1        0.0005
      7 C           7.9575    0.1816    0.0000 C.3     1  UNL1        0.1566
      8 C           4.6453   -0.1785    0.0000 C.3     1  UNL1       -0.0507
      9 C           3.6942    0.1305    0.0000 C.3     1  UNL1       -0.0532
     10 C           2.9511   -0.5386    0.0000 C.3     1  UNL1       -0.0559
     11 C           2.0000   -0.2296    0.0000 C.3     1  UNL1       -0.0653
     12 H           6.2425    0.7940    0.0000 H       1  UNL1        0.0597
     13 H           6.0420   -0.8983    0.0000 H       1  UNL1        0.0292
     14 H           6.7133   -1.3860    0.0000 H       1  UNL1        0.0292
     15 H           5.6795    1.0381    0.0000 H       1  UNL1        0.0290
     16 H           4.8998    0.8724    0.0000 H       1  UNL1        0.0290
     17 H           7.5837   -1.3860    0.0000 H       1  UNL1        0.0315
     18 H           8.2549   -0.8983    0.0000 H       1  UNL1        0.0315
     19 H           8.0545    0.7940    0.0000 H       1  UNL1        0.0907
     20 H           4.3542   -0.7259    0.0000 H       1  UNL1        0.0266
     21 H           5.1338   -0.5602    0.0000 H       1  UNL1        0.0266
     22 H           3.9853    0.6780    0.0000 H       1  UNL1        0.0265
     23 H           3.2056    0.5122    0.0000 H       1  UNL1        0.0265
     24 H           2.6600   -1.0860    0.0000 H       1  UNL1        0.0263
     25 H           3.4396   -0.9203    0.0000 H       1  UNL1        0.0263
     26 H           9.3693    0.0758    0.0000 H       1  UNL1        0.2125
     27 H           2.1916    0.3601    0.0000 H       1  UNL1        0.0230
     28 H           1.4103   -0.0380    0.0000 H       1  UNL1        0.0230
     29 H           1.8084   -0.8192    0.0000 H       1  UNL1        0.0230
@<TRIPOS>BOND
     1     1     3    1
     2     1     7    1
     3     2     7    1
     4     2    26    1
     5     3     4    1
     6     3     5    1
     7     3    12    1
     8     4     6    1
     9     4    13    1
    10     4    14    1
    11     5     8    1
    12     5    15    1
    13     5    16    1
    14     6     7    1
    15     6    17    1
    16     6    18    1
    17     7    19    1
    18     8     9    1
    19     8    20    1
    20     8    21    1
    21     9    10    1
    22     9    22    1
    23     9    23    1
    24    10    11    1
    25    10    24    1
    26    10    25    1
    27    11    27    1
    28    11    28    1
    29    11    29    1
