@<TRIPOS>MOLECULE
IMPHY002602
 17 19 0 0 0
SMALL
GASTEIGER

@<TRIPOS>ATOM
      1 C           1.7277    2.4938    0.0000 C.3     1  UNL1        0.0190
      2 C           1.7277    1.4912    0.0000 C.2     1  UNL1       -0.0452
      3 C           2.5933    2.9926    0.0000 C.3     1  UNL1        0.0521
      4 C           0.8656    3.0029    0.0000 C.3     1  UNL1        0.0039
      5 C           1.7328    3.4948    0.0000 C.3     1  UNL1        0.0042
      6 C           0.8656    0.9993    0.0000 C.3     1  UNL1        0.0183
      7 C           2.5933    0.9941    0.0000 C.2     1  UNL1       -0.0095
      8 C           3.4554    2.4938    0.0000 C.3     1  UNL1        0.1916
      9 C           0.0000    2.4938    0.0000 C.3     1  UNL1        0.0006
     10 C           0.0000    1.4912    0.0000 C.3     1  UNL1        0.0040
     11 C           0.8656    0.0000    0.0000 C.3     1  UNL1        0.0043
     12 C           3.4554    1.4912    0.0000 C.2     1  UNL1        0.0189
     13 O           4.4084    2.8041    0.0000 O.3     1  UNL1       -0.4448
     14 C           4.4084    1.1826    0.0000 C.2     1  UNL1        0.0531
     15 C           4.9980    1.9934    0.0000 C.2     1  UNL1        0.3372
     16 C           4.7186    0.2314    0.0000 C.3     1  UNL1        0.0376
     17 O           5.9989    1.9934    0.0000 O.2     1  UNL1       -0.2453
@<TRIPOS>BOND
     1     1     2    1
     2     1     3    1
     3     1     4    1
     4     1     5    1
     5     2     6    1
     6     2     7    2
     7     4     9    1
     8     6    10    1
     9     6    11    1
    10     7    12    1
    11     8     3    1
    12     8    12    1
    13     8    13    1
    14     9    10    1
    15    12    14    2
    16    13    15    1
    17    14    15    1
    18    14    16    1
    19    15    17    2
