@<TRIPOS>MOLECULE
IMPHY017615
 35 34 0 0 0
SMALL
GASTEIGER

@<TRIPOS>ATOM
      1 O           5.4641    0.7500    0.0000 O.3     1  UNL1       -0.4646
      2 O           6.3301   -0.7500    0.0000 O.2     1  UNL1       -0.2508
      3 C           8.0622    0.2500    0.0000 C.3     1  UNL1       -0.0338
      4 C           8.9282    0.7500    0.0000 C.3     1  UNL1       -0.0502
      5 C           7.1962    0.7500    0.0000 C.3     1  UNL1        0.0475
      6 C           9.7942    0.2500    0.0000 C.3     1  UNL1       -0.0557
      7 C           8.0622   -0.7500    0.0000 C.3     1  UNL1       -0.0619
      8 C           6.3301    0.2500    0.0000 C.2     1  UNL1        0.3073
      9 C          10.6603    0.7500    0.0000 C.3     1  UNL1       -0.0653
     10 C           3.7320    0.7500    0.0000 C.3     1  UNL1       -0.0188
     11 C           4.5981    0.2500    0.0000 C.3     1  UNL1        0.0924
     12 C           2.8660    0.2500    0.0000 C.3     1  UNL1       -0.0528
     13 C           2.0000    0.7500    0.0000 C.3     1  UNL1       -0.0652
     14 H           7.5252   -0.0600    0.0000 H       1  UNL1        0.0303
     15 H           9.3267    1.2250    0.0000 H       1  UNL1        0.0268
     16 H           8.5297    1.2250    0.0000 H       1  UNL1        0.0268
     17 H           7.5947    1.2250    0.0000 H       1  UNL1        0.0380
     18 H           6.7976    1.2250    0.0000 H       1  UNL1        0.0380
     19 H           9.3957   -0.2249    0.0000 H       1  UNL1        0.0263
     20 H          10.1928   -0.2249    0.0000 H       1  UNL1        0.0263
     21 H           7.4422   -0.7500    0.0000 H       1  UNL1        0.0233
     22 H           8.0622   -1.3700    0.0000 H       1  UNL1        0.0233
     23 H           8.6822   -0.7500    0.0000 H       1  UNL1        0.0233
     24 H          10.9703    0.2131    0.0000 H       1  UNL1        0.0230
     25 H          11.1972    1.0600    0.0000 H       1  UNL1        0.0230
     26 H          10.3503    1.2869    0.0000 H       1  UNL1        0.0230
     27 H           4.1306    1.2250    0.0000 H       1  UNL1        0.0298
     28 H           3.3335    1.2250    0.0000 H       1  UNL1        0.0298
     29 H           4.1996   -0.2249    0.0000 H       1  UNL1        0.0697
     30 H           4.9966   -0.2249    0.0000 H       1  UNL1        0.0697
     31 H           2.4675   -0.2249    0.0000 H       1  UNL1        0.0264
     32 H           3.2646   -0.2249    0.0000 H       1  UNL1        0.0264
     33 H           2.3100    1.2869    0.0000 H       1  UNL1        0.0230
     34 H           1.4631    1.0600    0.0000 H       1  UNL1        0.0230
     35 H           1.6900    0.2131    0.0000 H       1  UNL1        0.0230
@<TRIPOS>BOND
     1     1     8    1
     2     1    11    1
     3     2     8    2
     4     3     4    1
     5     3     5    1
     6     3     7    1
     7     3    14    1
     8     4     6    1
     9     4    15    1
    10     4    16    1
    11     5     8    1
    12     5    17    1
    13     5    18    1
    14     6     9    1
    15     6    19    1
    16     6    20    1
    17     7    21    1
    18     7    22    1
    19     7    23    1
    20     9    24    1
    21     9    25    1
    22     9    26    1
    23    10    11    1
    24    10    12    1
    25    10    27    1
    26    10    28    1
    27    11    29    1
    28    11    30    1
    29    12    13    1
    30    12    31    1
    31    12    32    1
    32    13    33    1
    33    13    34    1
    34    13    35    1
