@<TRIPOS>MOLECULE
IMPHY004234
 75 80 0 0 0
SMALL
GASTEIGER

@<TRIPOS>ATOM
      1 O           5.5954   -2.5456    0.0000 O.3     1  UNL1       -0.3448
      2 O           3.9300   -1.4644    0.0000 O.3     1  UNL1       -0.3480
      3 O          11.0589   -0.8349    0.0000 O.3     1  UNL1       -0.3915
      4 O          12.0027    2.8336    0.0000 O.3     1  UNL1       -0.3918
      5 C           6.6628   -0.3108    0.0000 C.3     1  UNL1       -0.0233
      6 C           7.5288   -0.8108    0.0000 C.3     1  UNL1       -0.0298
      7 C           8.3948   -0.3108    0.0000 C.3     1  UNL1       -0.0319
      8 C           5.9258   -0.9778    0.0000 C.3     1  UNL1       -0.0015
      9 C           8.3948    0.6892    0.0000 C.3     1  UNL1       -0.0321
     10 C           6.3309   -1.8856    0.0000 C.3     1  UNL1        0.0660
     11 C           9.2888    1.2239    0.0000 C.3     1  UNL1       -0.0236
     12 C           7.3196   -1.7826    0.0000 C.3     1  UNL1       -0.0226
     13 C           6.6628    0.6892    0.0000 C.3     1  UNL1       -0.0467
     14 C           7.5288    1.1892    0.0000 C.3     1  UNL1       -0.0489
     15 C           4.9434   -1.0845    0.0000 C.3     1  UNL1        0.0160
     16 C          10.1949    0.7101    0.0000 C.3     1  UNL1       -0.0070
     17 C           9.2888   -0.8454    0.0000 C.3     1  UNL1       -0.0232
     18 C           4.7396   -2.0515    0.0000 C.3     1  UNL1        0.1732
     19 C          10.1949   -0.3316    0.0000 C.3     1  UNL1        0.0589
     20 C           5.7968    0.1892    0.0000 C.3     1  UNL1       -0.0590
     21 C           9.2637    2.3086    0.0000 C.3     1  UNL1       -0.0447
     22 C          11.1386    1.2453    0.0000 C.3     1  UNL1       -0.0212
     23 C           8.4189    1.7172    0.0000 C.3     1  UNL1       -0.0590
     24 C          10.1949    2.8655    0.0000 C.3     1  UNL1       -0.0263
     25 C           4.2723   -0.3431    0.0000 C.3     1  UNL1       -0.0572
     26 C           4.6359   -3.0461    0.0000 C.3     1  UNL1        0.0020
     27 C          11.1386    2.3303    0.0000 C.3     1  UNL1        0.0556
     28 C           3.7227   -3.4536    0.0000 C.3     1  UNL1       -0.0435
     29 C           3.0169   -1.8719    0.0000 C.3     1  UNL1        0.0535
     30 C           2.9132   -2.8665    0.0000 C.3     1  UNL1       -0.0201
     31 C           2.0000   -3.2741    0.0000 C.3     1  UNL1       -0.0603
     32 H           8.2158   -1.3113    0.0000 H       1  UNL1        0.0310
     33 H           8.3883   -1.1607    0.0000 H       1  UNL1        0.0307
     34 H           5.5777   -0.2024    0.0000 H       1  UNL1        0.0335
     35 H           9.1342    0.2699    0.0000 H       1  UNL1        0.0309
     36 H           6.6756   -2.6626    0.0000 H       1  UNL1        0.0600
     37 H           7.3187   -2.4026    0.0000 H       1  UNL1        0.0293
     38 H           7.9361   -1.8486    0.0000 H       1  UNL1        0.0293
     39 H           6.4507    1.2719    0.0000 H       1  UNL1        0.0271
     40 H           6.0522    0.5816    0.0000 H       1  UNL1        0.0271
     41 H           7.9274    1.6642    0.0000 H       1  UNL1        0.0268
     42 H           7.1303    1.6642    0.0000 H       1  UNL1        0.0268
     43 H           4.3448   -1.2463    0.0000 H       1  UNL1        0.0354
     44 H          10.9293    0.2822    0.0000 H       1  UNL1        0.0332
     45 H           8.8842   -1.3152    0.0000 H       1  UNL1        0.0293
     46 H           9.6824   -1.3244    0.0000 H       1  UNL1        0.0293
     47 H          10.1913   -0.9516    0.0000 H       1  UNL1        0.0596
     48 H           6.1068    0.7262    0.0000 H       1  UNL1        0.0235
     49 H           5.2598    0.4992    0.0000 H       1  UNL1        0.0235
     50 H           5.4868   -0.3477    0.0000 H       1  UNL1        0.0235
     51 H           9.0412    2.8873    0.0000 H       1  UNL1        0.0271
     52 H           8.6555    2.1884    0.0000 H       1  UNL1        0.0271
     53 H          11.3477    0.6616    0.0000 H       1  UNL1        0.0294
     54 H          11.7495    1.3514    0.0000 H       1  UNL1        0.0294
     55 H           8.7248    2.2565    0.0000 H       1  UNL1        0.0235
     56 H           7.8796    2.0231    0.0000 H       1  UNL1        0.0235
     57 H           8.1131    1.1779    0.0000 H       1  UNL1        0.0235
     58 H          10.5885    3.3446    0.0000 H       1  UNL1        0.0290
     59 H           9.7903    3.3353    0.0000 H       1  UNL1        0.0290
     60 H           4.7320    0.0729    0.0000 H       1  UNL1        0.0234
     61 H           3.8562    0.1165    0.0000 H       1  UNL1        0.0234
     62 H           3.8126   -0.7592    0.0000 H       1  UNL1        0.0234
     63 H           4.7864   -3.6476    0.0000 H       1  UNL1        0.0317
     64 H           5.2544   -3.0023    0.0000 H       1  UNL1        0.0317
     65 H          11.1351    2.9503    0.0000 H       1  UNL1        0.0593
     66 H           3.2771   -3.8847    0.0000 H       1  UNL1        0.0270
     67 H           4.0699   -3.9673    0.0000 H       1  UNL1        0.0270
     68 H          11.0566   -1.4549    0.0000 H       1  UNL1        0.2098
     69 H           2.8664   -1.2705    0.0000 H       1  UNL1        0.0563
     70 H           2.3984   -1.9157    0.0000 H       1  UNL1        0.0563
     71 H           2.4113   -2.5026    0.0000 H       1  UNL1        0.0320
     72 H          12.0003    3.4536    0.0000 H       1  UNL1        0.2098
     73 H           1.7473   -2.7079    0.0000 H       1  UNL1        0.0233
     74 H           1.4338   -3.5267    0.0000 H       1  UNL1        0.0233
     75 H           2.2527   -3.8402    0.0000 H       1  UNL1        0.0233
@<TRIPOS>BOND
     1     1    10    1
     2    18     1    1
     3     2    18    1
     4     2    29    1
     5    19     3    1
     6     3    68    1
     7    27     4    1
     8     4    72    1
     9     5     6    1
    10     5     8    1
    11     5    13    1
    12     5    20    1
    13     6     7    1
    14     6    12    1
    15     6    32    1
    16     7     9    1
    17     7    17    1
    18     7    33    1
    19     8    10    1
    20     8    15    1
    21     8    34    1
    22     9    11    1
    23     9    14    1
    24     9    35    1
    25    10    12    1
    26    10    36    1
    27    11    16    1
    28    11    21    1
    29    11    23    1
    30    12    37    1
    31    12    38    1
    32    13    14    1
    33    13    39    1
    34    13    40    1
    35    14    41    1
    36    14    42    1
    37    15    18    1
    38    15    25    1
    39    15    43    1
    40    16    19    1
    41    16    22    1
    42    16    44    1
    43    17    19    1
    44    17    45    1
    45    17    46    1
    46    18    26    1
    47    19    47    1
    48    20    48    1
    49    20    49    1
    50    20    50    1
    51    21    24    1
    52    21    51    1
    53    21    52    1
    54    22    27    1
    55    22    53    1
    56    22    54    1
    57    23    55    1
    58    23    56    1
    59    23    57    1
    60    24    27    1
    61    24    58    1
    62    24    59    1
    63    25    60    1
    64    25    61    1
    65    25    62    1
    66    26    28    1
    67    26    63    1
    68    26    64    1
    69    27    65    1
    70    28    30    1
    71    28    66    1
    72    28    67    1
    73    29    30    1
    74    29    69    1
    75    29    70    1
    76    30    31    1
    77    30    71    1
    78    31    73    1
    79    31    74    1
    80    31    75    1
