@<TRIPOS>MOLECULE
IMPHY004347
 37 38 0 0 0
SMALL
GASTEIGER

@<TRIPOS>ATOM
      1 CL          2.0000    0.9734    0.0000 Cl      1  UNL1       -0.1251
      2 O           7.5870    1.7286    0.0000 O.2     1  UNL1       -0.2914
      3 O           8.5644   -1.6089    0.0000 O.3     1  UNL1       -0.3940
      4 C           7.8600   -0.0266    0.0000 C.3     1  UNL1        0.0577
      5 C           7.2764   -0.8314    0.0000 C.3     1  UNL1       -0.0124
      6 C           6.3301   -0.5266    0.0000 C.ar    1  UNL1       -0.0354
      7 C           6.3301    0.4734    0.0000 C.ar    1  UNL1        0.0244
      8 C           7.2764    0.7781    0.0000 C.2     1  UNL1        0.1720
      9 C           8.6690   -0.6144    0.0000 C.3     1  UNL1        0.0569
     10 C           8.6690    0.5612    0.0000 C.3     1  UNL1       -0.0501
     11 C           5.4641    0.9734    0.0000 C.ar    1  UNL1       -0.0362
     12 C           5.4641   -1.0266    0.0000 C.ar    1  UNL1       -0.0547
     13 C           4.5981    0.4734    0.0000 C.ar    1  UNL1       -0.0398
     14 C           4.5981   -0.5266    0.0000 C.ar    1  UNL1       -0.0467
     15 C           3.7320    0.9734    0.0000 C.3     1  UNL1       -0.0137
     16 C           5.4641    1.9734    0.0000 C.3     1  UNL1       -0.0388
     17 C           3.7320   -1.0266    0.0000 C.3     1  UNL1       -0.0394
     18 C           2.8660    0.4734    0.0000 C.3     1  UNL1        0.0266
     19 H           7.0253   -1.3983    0.0000 H       1  UNL1        0.0324
     20 H           7.8137   -1.1406    0.0000 H       1  UNL1        0.0324
     21 H           9.2650   -0.7853    0.0000 H       1  UNL1        0.0567
     22 H           8.9408   -0.0572    0.0000 H       1  UNL1        0.0567
     23 H           9.0334    0.0596    0.0000 H       1  UNL1        0.0240
     24 H           9.1706    0.9256    0.0000 H       1  UNL1        0.0240
     25 H           8.3046    1.0627    0.0000 H       1  UNL1        0.0240
     26 H           5.4641   -1.6466    0.0000 H       1  UNL1        0.0623
     27 H           4.1306    1.4483    0.0000 H       1  UNL1        0.0325
     28 H           3.3335    1.4483    0.0000 H       1  UNL1        0.0325
     29 H           6.0841    1.9734    0.0000 H       1  UNL1        0.0278
     30 H           5.4641    2.5934    0.0000 H       1  UNL1        0.0278
     31 H           4.8441    1.9734    0.0000 H       1  UNL1        0.0278
     32 H           3.4220   -0.4897    0.0000 H       1  UNL1        0.0278
     33 H           3.1951   -1.3366    0.0000 H       1  UNL1        0.0278
     34 H           4.0420   -1.5636    0.0000 H       1  UNL1        0.0278
     35 H           9.0660   -1.9734    0.0000 H       1  UNL1        0.2094
     36 H           2.4675   -0.0016    0.0000 H       1  UNL1        0.0433
     37 H           3.2646   -0.0016    0.0000 H       1  UNL1        0.0433
@<TRIPOS>BOND
     1     1    18    1
     2     2     8    2
     3     3     9    1
     4     3    35    1
     5     4     5    1
     6     4     8    1
     7     4     9    1
     8     4    10    1
     9     5     6    1
    10     5    19    1
    11     5    20    1
    12     6     7   ar
    13     6    12   ar
    14     7     8    1
    15     7    11   ar
    16     9    21    1
    17     9    22    1
    18    10    23    1
    19    10    24    1
    20    10    25    1
    21    11    13   ar
    22    11    16    1
    23    12    14   ar
    24    12    26    1
    25    13    14   ar
    26    13    15    1
    27    14    17    1
    28    15    18    1
    29    15    27    1
    30    15    28    1
    31    16    29    1
    32    16    30    1
    33    16    31    1
    34    17    32    1
    35    17    33    1
    36    17    34    1
    37    18    36    1
    38    18    37    1
