@<TRIPOS>MOLECULE
IMPHY010383
 49 53 0 0 0
SMALL
GASTEIGER

@<TRIPOS>ATOM
      1 O           9.3042   -2.2094    0.0000 O.3     1  UNL1       -0.3910
      2 O           7.5596   -2.7134    0.0000 O.3     1  UNL1       -0.4804
      3 O           6.2860   -1.5396    0.0000 O.2     1  UNL1       -0.2506
      4 N           6.9654    1.9766    0.0000 N.3     1  UNL1       -0.2934
      5 N           4.5124    0.8591    0.0000 N.ar    1  UNL1       -0.3564
      6 C           7.6200    0.0135    0.0000 C.3     1  UNL1       -0.0200
      7 C           8.3170    0.7876    0.0000 C.3     1  UNL1       -0.0244
      8 C           6.6028    0.2379    0.0000 C.3     1  UNL1       -0.0279
      9 C           6.2962    1.2334    0.0000 C.3     1  UNL1        0.0512
     10 C           7.9393   -1.0234    0.0000 C.3     1  UNL1        0.0852
     11 C           7.9875    1.7757    0.0000 C.3     1  UNL1        0.0026
     12 C           9.3816    0.5784    0.0000 C.3     1  UNL1       -0.0464
     13 C           8.9988   -1.2572    0.0000 C.3     1  UNL1        0.0684
     14 C           9.7248   -0.4509    0.0000 C.3     1  UNL1       -0.0258
     15 C           5.3181    1.4413    0.0000 C.ar    1  UNL1        0.0376
     16 C           6.6564    2.9276    0.0000 C.3     1  UNL1        0.0036
     17 C           5.0091    2.3924    0.0000 C.ar    1  UNL1       -0.0164
     18 C           5.6782    3.1355    0.0000 C.3     1  UNL1       -0.0125
     19 C           7.2616   -1.7588    0.0000 C.2     1  UNL1        0.3106
     20 C           4.0150    2.3898    0.0000 C.ar    1  UNL1        0.0032
     21 C           3.7086    1.4441    0.0000 C.ar    1  UNL1        0.0470
     22 C           3.3334    3.1693    0.0000 C.ar    1  UNL1       -0.0523
     23 C           2.6994    1.2124    0.0000 C.ar    1  UNL1       -0.0378
     24 C           2.3191    2.9609    0.0000 C.ar    1  UNL1       -0.0611
     25 C           2.0000    1.9759    0.0000 C.ar    1  UNL1       -0.0598
     26 H           7.0440   -0.6116    0.0000 H       1  UNL1        0.0313
     27 H           8.8784    1.4258    0.0000 H       1  UNL1        0.0316
     28 H           5.9878    0.1595    0.0000 H       1  UNL1        0.0287
     29 H           6.5748   -0.3815    0.0000 H       1  UNL1        0.0287
     30 H           5.7226    0.6061    0.0000 H       1  UNL1        0.0527
     31 H           7.3346   -0.8864    0.0000 H       1  UNL1        0.0442
     32 H           8.6005    1.8683    0.0000 H       1  UNL1        0.0429
     33 H           8.0011    2.3956    0.0000 H       1  UNL1        0.0429
     34 H           9.9946    0.6710    0.0000 H       1  UNL1        0.0269
     35 H           9.3953    1.1982    0.0000 H       1  UNL1        0.0269
     36 H           9.6050   -1.3873    0.0000 H       1  UNL1        0.0601
     37 H          10.1078   -0.9385    0.0000 H       1  UNL1        0.0290
     38 H          10.2708   -0.1570    0.0000 H       1  UNL1        0.0290
     39 H           7.2703    3.0139    0.0000 H       1  UNL1        0.0430
     40 H           6.6780    3.5472    0.0000 H       1  UNL1        0.0430
     41 H           5.9105    3.7104    0.0000 H       1  UNL1        0.0326
     42 H           5.1524    3.4641    0.0000 H       1  UNL1        0.0326
     43 H           4.5113    0.2391    0.0000 H       1  UNL1        0.1656
     44 H           9.9101   -2.3407    0.0000 H       1  UNL1        0.2098
     45 H           3.5313    3.7569    0.0000 H       1  UNL1        0.0624
     46 H           7.1395   -3.1693    0.0000 H       1  UNL1        0.2951
     47 H           2.5152    0.6204    0.0000 H       1  UNL1        0.0638
     48 H           1.9056    3.4229    0.0000 H       1  UNL1        0.0618
     49 H           1.3942    1.8441    0.0000 H       1  UNL1        0.0618
@<TRIPOS>BOND
     1    13     1    1
     2     1    44    1
     3     2    19    1
     4     2    46    1
     5     3    19    2
     6     4     9    1
     7     4    11    1
     8     4    16    1
     9     5    15   ar
    10     5    21   ar
    11     5    43    1
    12     6     7    1
    13     6     8    1
    14     6    10    1
    15     6    26    1
    16     7    11    1
    17     7    12    1
    18     7    27    1
    19     8     9    1
    20     8    28    1
    21     8    29    1
    22     9    15    1
    23     9    30    1
    24    10    13    1
    25    10    19    1
    26    10    31    1
    27    11    32    1
    28    11    33    1
    29    12    14    1
    30    12    34    1
    31    12    35    1
    32    13    14    1
    33    13    36    1
    34    14    37    1
    35    14    38    1
    36    15    17   ar
    37    16    18    1
    38    16    39    1
    39    16    40    1
    40    17    18    1
    41    17    20   ar
    42    18    41    1
    43    18    42    1
    44    20    21   ar
    45    20    22   ar
    46    21    23   ar
    47    22    24   ar
    48    22    45    1
    49    23    25   ar
    50    23    47    1
    51    24    25   ar
    52    24    48    1
    53    25    49    1
