@<TRIPOS>MOLECULE
IMPHY001165
 55 59 0 0 0
SMALL
GASTEIGER

@<TRIPOS>ATOM
      1 O           5.7537   -1.6344    0.0000 O.3     1  UNL1       -0.4677
      2 O           4.1796   -2.3572    0.0000 O.2     1  UNL1       -0.2505
      3 O           7.6727    0.0558    0.0000 O.3     1  UNL1       -0.4951
      4 N           3.8732    2.4696    0.0000 N.3     1  UNL1       -0.2771
      5 N           3.9336    1.9437    0.0000 N.pl3   1  UNL1       -0.3135
      6 C           4.4336    0.4048    0.0000 C.3     1  UNL1        0.0470
      7 C           3.6246    0.9926    0.0000 C.3     1  UNL1        0.0991
      8 C           4.3407   -0.6326    0.0000 C.3     1  UNL1        0.0758
      9 C           5.7615    1.0977    0.0000 C.3     1  UNL1       -0.0264
     10 C           3.3924   -1.0636    0.0000 C.3     1  UNL1       -0.0047
     11 C           2.6666    0.5837    0.0000 C.3     1  UNL1       -0.0163
     12 C           5.3692    2.5432    0.0000 C.3     1  UNL1        0.0021
     13 C           5.2426    0.9926    0.0000 C.ar    1  UNL1       -0.0125
     14 C           2.5498   -0.4514    0.0000 C.3     1  UNL1       -0.0425
     15 C           3.6719    1.2977    0.0000 C.3     1  UNL1        0.0223
     16 C           4.9336    1.9437    0.0000 C.ar    1  UNL1        0.0349
     17 C           3.5116    0.1195    0.0000 C.2     1  UNL1       -0.0558
     18 C           4.7580   -1.5414    0.0000 C.2     1  UNL1        0.3115
     19 C           3.1046    2.5029    0.0000 C.3     1  UNL1        0.0024
     20 C           6.0059    0.2838    0.0000 C.ar    1  UNL1       -0.0144
     21 C           5.9192    2.2808    0.0000 C.ar    1  UNL1       -0.0369
     22 C           2.5185    0.2370    0.0000 C.2     1  UNL1       -0.0864
     23 C           6.8267    0.5890    0.0000 C.ar    1  UNL1        0.1205
     24 C           6.8709    1.5988    0.0000 C.ar    1  UNL1       -0.0182
     25 C           2.1237    1.1558    0.0000 C.3     1  UNL1       -0.0465
     26 C           6.1709   -2.5432    0.0000 C.3     1  UNL1        0.0817
     27 C           8.5574    0.5219    0.0000 C.3     1  UNL1        0.0788
     28 H           4.9580   -0.6903    0.0000 H       1  UNL1        0.0429
     29 H           6.0081    0.5288    0.0000 H       1  UNL1        0.0287
     30 H           6.3467    1.3027    0.0000 H       1  UNL1        0.0287
     31 H           3.3069   -1.9093    0.0000 H       1  UNL1        0.0354
     32 H           2.5244    1.1871    0.0000 H       1  UNL1        0.0300
     33 H           2.0477    0.5468    0.0000 H       1  UNL1        0.0300
     34 H           5.9777    2.6622    0.0000 H       1  UNL1        0.0428
     35 H           5.2943    3.1587    0.0000 H       1  UNL1        0.0428
     36 H           1.9546   -0.2774    0.0000 H       1  UNL1        0.0272
     37 H           2.2765   -1.0079    0.0000 H       1  UNL1        0.0272
     38 H           3.1906    1.6886    0.0000 H       1  UNL1        0.0473
     39 H           4.2847    1.2034    0.0000 H       1  UNL1        0.0473
     40 H           3.4513    3.0169    0.0000 H       1  UNL1        0.0428
     41 H           2.5906    2.8496    0.0000 H       1  UNL1        0.0428
     42 H           2.7579    1.9889    0.0000 H       1  UNL1        0.0428
     43 H           5.8850   -0.3243    0.0000 H       1  UNL1        0.0658
     44 H           6.0094    2.8942    0.0000 H       1  UNL1        0.0637
     45 H           2.0000   -0.1030    0.0000 H       1  UNL1        0.0569
     46 H           7.4285    1.8700    0.0000 H       1  UNL1        0.0655
     47 H           2.6934    1.4005    0.0000 H       1  UNL1        0.0272
     48 H           1.8790    1.7254    0.0000 H       1  UNL1        0.0272
     49 H           1.5541    0.9110    0.0000 H       1  UNL1        0.0272
     50 H           5.6075   -2.8019    0.0000 H       1  UNL1        0.0661
     51 H           6.4296   -3.1067    0.0000 H       1  UNL1        0.0661
     52 H           6.7344   -2.2845    0.0000 H       1  UNL1        0.0661
     53 H           8.8464   -0.0267    0.0000 H       1  UNL1        0.0660
     54 H           9.1060    0.8108    0.0000 H       1  UNL1        0.0660
     55 H           8.2685    1.0704    0.0000 H       1  UNL1        0.0660
@<TRIPOS>BOND
     1     1    18    1
     2     1    26    1
     3     2    18    2
     4     3    23    1
     5     3    27    1
     6     4     7    1
     7     4    12    1
     8     4    15    1
     9     5     7    1
    10     5    16    1
    11     5    19    1
    12     6     7    1
    13     6     8    1
    14     6     9    1
    15     6    13    1
    16     7    11    1
    17     8    10    1
    18     8    18    1
    19     8    28    1
    20     9    12    1
    21     9    29    1
    22     9    30    1
    23    10    14    1
    24    10    17    1
    25    10    31    1
    26    11    14    1
    27    11    32    1
    28    11    33    1
    29    12    34    1
    30    12    35    1
    31    13    16   ar
    32    13    20   ar
    33    14    36    1
    34    14    37    1
    35    15    17    1
    36    15    38    1
    37    15    39    1
    38    16    21   ar
    39    17    22    2
    40    19    40    1
    41    19    41    1
    42    19    42    1
    43    20    23   ar
    44    20    43    1
    45    21    24   ar
    46    21    44    1
    47    22    25    1
    48    22    45    1
    49    23    24   ar
    50    24    46    1
    51    25    47    1
    52    25    48    1
    53    25    49    1
    54    26    50    1
    55    26    51    1
    56    26    52    1
    57    27    53    1
    58    27    54    1
    59    27    55    1
