@<TRIPOS>MOLECULE
IMPHY012983
 51 53 0 0 0
SMALL
GASTEIGER

@<TRIPOS>ATOM
      1 O           5.9019   -0.5090    0.0000 O.3     1  UNL1       -0.3712
      2 O           3.0106    1.1465    0.0000 O.3     1  UNL1       -0.3868
      3 O           2.5896   -0.1489    0.0000 O.3     1  UNL1       -0.3946
      4 O           3.3608   -4.0968    0.0000 O.3     1  UNL1       -0.4914
      5 O           6.8076    3.2872    0.0000 O.3     1  UNL1       -0.4914
      6 O           5.0929   -5.0968    0.0000 O.3     1  UNL1       -0.5033
      7 O           5.6320    4.9052    0.0000 O.3     1  UNL1       -0.5033
      8 C           4.5929    0.4420    0.0000 C.3     1  UNL1        0.0202
      9 C           4.2839   -0.5090    0.0000 C.3     1  UNL1        0.0202
     10 C           5.0929   -1.0968    0.0000 C.3     1  UNL1        0.0890
     11 C           5.5929    0.4420    0.0000 C.3     1  UNL1        0.0544
     12 C           4.0051    1.2510    0.0000 C.3     1  UNL1        0.0856
     13 C           3.3328   -0.8180    0.0000 C.3     1  UNL1        0.0501
     14 C           5.0929   -2.0968    0.0000 C.ar    1  UNL1       -0.0149
     15 C           4.4118    2.1646    0.0000 C.ar    1  UNL1       -0.0151
     16 C           4.2268   -2.5968    0.0000 C.ar    1  UNL1       -0.0107
     17 C           5.9589   -2.5968    0.0000 C.ar    1  UNL1       -0.0524
     18 C           5.4064    2.2691    0.0000 C.ar    1  UNL1       -0.0107
     19 C           3.8240    2.9736    0.0000 C.ar    1  UNL1       -0.0524
     20 C           4.2268   -3.5968    0.0000 C.ar    1  UNL1        0.1616
     21 C           5.9589   -3.5968    0.0000 C.ar    1  UNL1       -0.0162
     22 C           5.8131    3.1827    0.0000 C.ar    1  UNL1        0.1616
     23 C           5.0929   -4.0968    0.0000 C.ar    1  UNL1        0.1585
     24 C           4.2308    3.8872    0.0000 C.ar    1  UNL1       -0.0162
     25 C           5.2253    3.9917    0.0000 C.ar    1  UNL1        0.1585
     26 C           2.4948   -3.5968    0.0000 C.3     1  UNL1        0.0790
     27 C           7.2143    4.2007    0.0000 C.3     1  UNL1        0.0790
     28 H           4.9788    1.1994    0.0000 H       1  UNL1        0.0356
     29 H           4.1869   -1.1214    0.0000 H       1  UNL1        0.0356
     30 H           5.6453   -1.3783    0.0000 H       1  UNL1        0.0650
     31 H           6.1993    0.5709    0.0000 H       1  UNL1        0.0564
     32 H           5.5281    1.0586    0.0000 H       1  UNL1        0.0564
     33 H           3.7529    0.6846    0.0000 H       1  UNL1        0.0647
     34 H           2.8442   -1.1998    0.0000 H       1  UNL1        0.0561
     35 H           3.6239   -1.3655    0.0000 H       1  UNL1        0.0561
     36 H           2.6461    1.6481    0.0000 H       1  UNL1        0.2102
     37 H           3.6899   -2.2868    0.0000 H       1  UNL1        0.0659
     38 H           6.4958   -2.2868    0.0000 H       1  UNL1        0.0622
     39 H           2.0000   -0.3405    0.0000 H       1  UNL1        0.2094
     40 H           5.7708    1.7675    0.0000 H       1  UNL1        0.0659
     41 H           3.2074    2.9088    0.0000 H       1  UNL1        0.0622
     42 H           6.4958   -3.9068    0.0000 H       1  UNL1        0.0655
     43 H           3.8664    4.3887    0.0000 H       1  UNL1        0.0655
     44 H           5.6298   -5.4068    0.0000 H       1  UNL1        0.2923
     45 H           5.2676    5.4068    0.0000 H       1  UNL1        0.2923
     46 H           2.8048   -3.0599    0.0000 H       1  UNL1        0.0660
     47 H           1.9579   -3.2868    0.0000 H       1  UNL1        0.0660
     48 H           2.1848   -4.1338    0.0000 H       1  UNL1        0.0660
     49 H           7.7807    3.9486    0.0000 H       1  UNL1        0.0660
     50 H           7.4665    4.7671    0.0000 H       1  UNL1        0.0660
     51 H           6.6479    4.4529    0.0000 H       1  UNL1        0.0660
@<TRIPOS>BOND
     1     1    10    1
     2     1    11    1
     3    12     2    1
     4     2    36    1
     5     3    13    1
     6     3    39    1
     7     4    20    1
     8     4    26    1
     9     5    22    1
    10     5    27    1
    11     6    23    1
    12     6    44    1
    13     7    25    1
    14     7    45    1
    15     8     9    1
    16     8    11    1
    17     8    12    1
    18     8    28    1
    19     9    10    1
    20     9    13    1
    21     9    29    1
    22    10    14    1
    23    10    30    1
    24    11    31    1
    25    11    32    1
    26    12    15    1
    27    12    33    1
    28    13    34    1
    29    13    35    1
    30    14    16   ar
    31    14    17   ar
    32    15    18   ar
    33    15    19   ar
    34    16    20   ar
    35    16    37    1
    36    17    21   ar
    37    17    38    1
    38    18    22   ar
    39    18    40    1
    40    19    24   ar
    41    19    41    1
    42    20    23   ar
    43    21    23   ar
    44    21    42    1
    45    22    25   ar
    46    24    25   ar
    47    24    43    1
    48    26    46    1
    49    26    47    1
    50    26    48    1
    51    27    49    1
    52    27    50    1
    53    27    51    1
