@<TRIPOS>MOLECULE
IMPHY010486
 43 48 0 0 0
SMALL
GASTEIGER

@<TRIPOS>ATOM
      1 O          11.3876   -2.0254    0.0000 O.3     1  UNL1       -0.2257
      2 O           5.9945   -3.0777    0.0000 O.3     1  UNL1       -0.3303
      3 O           7.8911   -0.0256    0.0000 O.2     1  UNL1       -0.2883
      4 O          12.6473    2.8479    0.0000 O.3     1  UNL1       -0.4408
      5 O           4.2625   -3.0711    0.0000 O.3     1  UNL1       -0.3276
      6 O          14.4078    3.1236    0.0000 O.2     1  UNL1       -0.2449
      7 O           6.0022   -1.0778    0.0000 O.3     1  UNL1       -0.4443
      8 O           4.2740   -0.0711    0.0000 O.3     1  UNL1       -0.3470
      9 O           2.5381   -1.0644    0.0000 O.3     1  UNL1       -0.2178
     10 O           5.1420    0.4256    0.0000 O.2     1  UNL1       -0.2501
     11 C          11.3876   -1.0254    0.0000 C.3     1  UNL1        0.1267
     12 C          10.5216   -1.5254    0.0000 C.3     1  UNL1        0.0285
     13 C          11.3876   -0.0254    0.0000 C.3     1  UNL1        0.0294
     14 C           9.6555   -1.0254    0.0000 C.3     1  UNL1        0.0090
     15 C           8.7455   -1.5323    0.0000 C.3     1  UNL1        0.0552
     16 C          12.3338    0.2793    0.0000 C.3     1  UNL1        0.0244
     17 C          10.5216    0.4746    0.0000 C.3     1  UNL1        0.0027
     18 C           8.7375   -2.5739    0.0000 C.3     1  UNL1       -0.0101
     19 C           9.6555   -0.0254    0.0000 C.3     1  UNL1        0.0006
     20 C          12.3338   -1.3302    0.0000 C.3     1  UNL1        0.0307
     21 C          10.5376   -2.5669    0.0000 C.3     1  UNL1        0.0022
     22 C          12.9174   -0.5254    0.0000 C.3     1  UNL1        0.0067
     23 C           9.6396   -3.0947    0.0000 C.3     1  UNL1       -0.0034
     24 C           7.8187   -0.9682    0.0000 C.3     1  UNL1        0.0096
     25 C          11.3876    0.9746    0.0000 C.3     1  UNL1        0.0028
     26 C           7.8021   -3.1236    0.0000 C.3     1  UNL1        0.0261
     27 C           6.8708   -1.4961    0.0000 C.3     1  UNL1        0.0301
     28 C           6.8624   -2.5811    0.0000 C.3     1  UNL1        0.1176
     29 C          12.6445    1.2298    0.0000 C.2     1  UNL1        0.0053
     30 C           8.7532   -0.5323    0.0000 C.2     1  UNL1        0.2062
     31 C          12.0581    2.0399    0.0000 C.3     1  UNL1        0.2314
     32 C          13.5960    1.5372    0.0000 C.2     1  UNL1        0.0769
     33 C          13.5978    2.5372    0.0000 C.2     1  UNL1        0.3412
     34 C           5.1304   -2.5744    0.0000 C.3     1  UNL1        0.2794
     35 C           5.1343   -1.5744    0.0000 C.3     1  UNL1        0.2540
     36 C           4.2702   -1.0711    0.0000 C.3     1  UNL1        0.1928
     37 C           3.3984   -2.5677    0.0000 C.3     1  UNL1        0.1507
     38 C           3.4022   -1.5677    0.0000 C.3     1  UNL1        0.2096
     39 C           2.5304   -3.0644    0.0000 C.3     1  UNL1        0.0350
     40 C           6.0061   -0.0778    0.0000 C.2     1  UNL1        0.3177
     41 C           3.4099    0.4322    0.0000 C.3     1  UNL1        0.1743
     42 C           6.8740    0.4189    0.0000 C.3     1  UNL1        0.1212
     43 H           8.7406   -3.3739    0.0000 H       1  UNL1        0.0323
@<TRIPOS>BOND
     1     1    11    1
     2     3    30    2
     3     4    31    1
     4     4    33    1
     5     5    34    1
     6     5    37    1
     7     6    33    2
     8     7    40    1
     9     8    41    1
    10    10    40    2
    11    11    12    1
    12    11    13    1
    13    11    20    1
    14    12    14    1
    15    12    21    1
    16    13    16    1
    17    13    17    1
    18    13    25    1
    19    14    15    1
    20    14    19    1
    21    15    18    1
    22    15    24    1
    23    15    30    1
    24    16    22    1
    25    16    29    1
    26    17    19    1
    27    18    23    1
    28    18    26    1
    29    18    43    1
    30    20    22    1
    31    21    23    1
    32    24    27    1
    33    26    28    1
    34    27    28    1
    35    28     2    1
    36    29    31    1
    37    29    32    2
    38    32    33    1
    39    34     2    1
    40    34    35    1
    41    35     7    1
    42    35    36    1
    43    36     8    1
    44    36    38    1
    45    37    38    1
    46    37    39    1
    47    38     9    1
    48    40    42    1
