@<TRIPOS>MOLECULE
IMPHY008069
 40 43 0 0 0
SMALL
GASTEIGER

@<TRIPOS>ATOM
      1 O           3.9061   -1.6074    0.0000 O.3     1  UNL1       -0.4815
      2 O           7.4260   -1.6074    0.0000 O.2     1  UNL1       -0.4620
      3 O           7.4144    1.4619    0.0000 O.2     1  UNL1       -0.2864
      4 O          11.7884    1.9615    0.0000 O.3     1  UNL1       -0.5068
      5 C           3.0000   -1.0935    0.0000 C.3     1  UNL1        0.1235
      6 C           4.8000   -0.0727    0.0000 C.ar    1  UNL1        0.0174
      7 C           4.8000   -1.0727    0.0000 C.ar    1  UNL1        0.1324
      8 C           3.0000   -0.0519    0.0000 C.2     1  UNL1       -0.0409
      9 C           2.0000   -1.0974    0.0000 C.3     1  UNL1       -0.0215
     10 C           2.5033   -1.9615    0.0000 C.3     1  UNL1       -0.0215
     11 C           3.9061    0.4620    0.0000 C.2     1  UNL1       -0.0513
     12 C           6.5320   -0.0727    0.0000 C.ar    1  UNL1        0.0653
     13 C           5.6660    0.4273    0.0000 C.ar    1  UNL1       -0.0367
     14 C           6.5320   -1.0727    0.0000 C.ar    1  UNL1        0.1419
     15 C           5.6660   -1.5727    0.0000 C.ar    1  UNL1        0.0237
     16 C           7.4260    0.4620    0.0000 C.ar    1  UNL1        0.2002
     17 C           8.3321   -0.0519    0.0000 C.ar    1  UNL1        0.0643
     18 C           8.3321   -1.0935    0.0000 C.ar    1  UNL1        0.1038
     19 C           9.1962    0.4515    0.0000 C.ar    1  UNL1       -0.0110
     20 C          10.0641   -0.0452    0.0000 C.ar    1  UNL1       -0.0504
     21 C           9.1923    1.4514    0.0000 C.ar    1  UNL1       -0.0504
     22 C          10.9282    0.4581    0.0000 C.ar    1  UNL1       -0.0196
     23 C          10.0564    1.9548    0.0000 C.ar    1  UNL1       -0.0196
     24 C          10.9243    1.4581    0.0000 C.ar    1  UNL1        0.1169
     25 H           2.4643    0.2602    0.0000 H       1  UNL1        0.0611
     26 H           1.9976   -0.4774    0.0000 H       1  UNL1        0.0271
     27 H           1.3800   -1.0998    0.0000 H       1  UNL1        0.0271
     28 H           1.9652   -1.6535    0.0000 H       1  UNL1        0.0271
     29 H           2.1954   -2.4996    0.0000 H       1  UNL1        0.0271
     30 H           3.0415   -2.2694    0.0000 H       1  UNL1        0.0271
     31 H           2.0024   -1.7174    0.0000 H       1  UNL1        0.0271
     32 H           3.9132    1.0819    0.0000 H       1  UNL1        0.0623
     33 H           5.6660    1.0473    0.0000 H       1  UNL1        0.0633
     34 H           5.6660   -2.1927    0.0000 H       1  UNL1        0.0691
     35 H           8.8678   -1.4056    0.0000 H       1  UNL1        0.1037
     36 H          10.0665   -0.6652    0.0000 H       1  UNL1        0.0625
     37 H           8.6542    1.7594    0.0000 H       1  UNL1        0.0625
     38 H          11.4663    0.1502    0.0000 H       1  UNL1        0.0654
     39 H          10.0540    2.5748    0.0000 H       1  UNL1        0.0654
     40 H          12.3266    1.6535    0.0000 H       1  UNL1        0.2921
@<TRIPOS>BOND
     1     1     5    1
     2     1     7    1
     3     2    14   ar
     4     2    18   ar
     5     3    16    2
     6     4    24    1
     7     4    40    1
     8     5     8    1
     9     5     9    1
    10     5    10    1
    11     6     7   ar
    12     6    11    1
    13     6    13   ar
    14     7    15   ar
    15     8    11    2
    16     8    25    1
    17     9    26    1
    18     9    27    1
    19     9    31    1
    20    10    28    1
    21    10    29    1
    22    10    30    1
    23    11    32    1
    24    12    13   ar
    25    12    14   ar
    26    12    16   ar
    27    13    33    1
    28    14    15   ar
    29    15    34    1
    30    16    17   ar
    31    17    18   ar
    32    17    19    1
    33    18    35    1
    34    19    20   ar
    35    19    21   ar
    36    20    22   ar
    37    20    36    1
    38    21    23   ar
    39    21    37    1
    40    22    24   ar
    41    22    38    1
    42    23    24   ar
    43    23    39    1
