@<TRIPOS>MOLECULE
IMPHY016993
 26 25 0 0 0
SMALL
GASTEIGER

@<TRIPOS>ATOM
      1 O           3.7320    0.2500    0.0000 O.3     1  UNL1       -0.4649
      2 O           4.5981   -1.2500    0.0000 O.2     1  UNL1       -0.2509
      3 C           7.1962    0.2500    0.0000 C.3     1  UNL1       -0.0462
      4 C           6.3301   -0.2500    0.0000 C.3     1  UNL1       -0.0406
      5 C           5.4641    0.2500    0.0000 C.3     1  UNL1        0.0452
      6 C           8.0622   -0.2500    0.0000 C.3     1  UNL1       -0.0627
      7 C           7.1962    1.2500    0.0000 C.3     1  UNL1       -0.0627
      8 C           4.5981   -0.2500    0.0000 C.2     1  UNL1        0.3071
      9 C           2.8660   -0.2500    0.0000 C.3     1  UNL1        0.0896
     10 C           2.0000    0.2500    0.0000 C.3     1  UNL1       -0.0306
     11 H           6.6592    0.5600    0.0000 H       1  UNL1        0.0296
     12 H           5.9316   -0.7249    0.0000 H       1  UNL1        0.0273
     13 H           6.7287   -0.7249    0.0000 H       1  UNL1        0.0273
     14 H           5.8626    0.7249    0.0000 H       1  UNL1        0.0378
     15 H           5.0656    0.7249    0.0000 H       1  UNL1        0.0378
     16 H           7.7522   -0.7869    0.0000 H       1  UNL1        0.0232
     17 H           8.5991   -0.5600    0.0000 H       1  UNL1        0.0232
     18 H           8.3722    0.2869    0.0000 H       1  UNL1        0.0232
     19 H           7.8162    1.2500    0.0000 H       1  UNL1        0.0232
     20 H           7.1962    1.8700    0.0000 H       1  UNL1        0.0232
     21 H           6.5762    1.2500    0.0000 H       1  UNL1        0.0232
     22 H           2.4675   -0.7249    0.0000 H       1  UNL1        0.0694
     23 H           3.2646   -0.7249    0.0000 H       1  UNL1        0.0694
     24 H           2.3100    0.7869    0.0000 H       1  UNL1        0.0262
     25 H           1.4631    0.5600    0.0000 H       1  UNL1        0.0262
     26 H           1.6900   -0.2869    0.0000 H       1  UNL1        0.0262
@<TRIPOS>BOND
     1     1     8    1
     2     1     9    1
     3     2     8    2
     4     3     4    1
     5     3     6    1
     6     3     7    1
     7     3    11    1
     8     4     5    1
     9     4    12    1
    10     4    13    1
    11     5     8    1
    12     5    14    1
    13     5    15    1
    14     6    16    1
    15     6    17    1
    16     6    18    1
    17     7    19    1
    18     7    20    1
    19     7    21    1
    20     9    10    1
    21     9    22    1
    22     9    23    1
    23    10    24    1
    24    10    25    1
    25    10    26    1
