@<TRIPOS>MOLECULE
IMPHY013519
 177 187 0 0 0
SMALL
GASTEIGER

@<TRIPOS>ATOM
      1 O          14.3523    1.9270    0.0000 O.3     1  UNL1       -0.3448
      2 O          14.2358    3.0892    0.0000 O.3     1  UNL1       -0.3399
      3 O          12.9292   -6.3170    0.0000 O.3     1  UNL1       -0.3451
      4 O          12.8040    5.3997    0.0000 O.3     1  UNL1       -0.3459
      5 O          11.1972   -6.3170    0.0000 O.3     1  UNL1       -0.3405
      6 O          11.7818    6.7979    0.0000 O.3     1  UNL1       -0.3405
      7 O          12.9292   -8.3170    0.0000 O.3     1  UNL1       -0.3378
      8 O          11.1972   -9.3170    0.0000 O.3     1  UNL1       -0.3864
      9 O          14.4186    6.5801    0.0000 O.3     1  UNL1       -0.3841
     10 O           9.4651   -8.3170    0.0000 O.3     1  UNL1       -0.3401
     11 O          14.2036    8.5685    0.0000 O.3     1  UNL1       -0.3864
     12 O          12.3740    9.3766    0.0000 O.3     1  UNL1       -0.3865
     13 O          13.7953   -6.8170    0.0000 O.3     1  UNL1       -0.3431
     14 O           9.4651   -5.3170    0.0000 O.3     1  UNL1       -0.3924
     15 O           9.9523    7.6060    0.0000 O.3     1  UNL1       -0.3924
     16 O           8.5991   -6.8170    0.0000 O.3     1  UNL1       -0.3405
     17 O          14.6613   -9.3170    0.0000 O.3     1  UNL1       -0.3841
     18 O          16.3933   -8.3170    0.0000 O.3     1  UNL1       -0.3864
     19 O           7.7331   -9.3170    0.0000 O.3     1  UNL1       -0.3841
     20 O          16.3933   -6.3170    0.0000 O.3     1  UNL1       -0.3866
     21 O           6.0010   -8.3170    0.0000 O.3     1  UNL1       -0.3401
     22 O           6.0010   -6.3170    0.0000 O.3     1  UNL1       -0.3865
     23 O           6.8671   -4.8170    0.0000 O.3     1  UNL1       -0.3924
     24 O           5.1350   -6.8170    0.0000 O.3     1  UNL1       -0.3405
     25 O           4.2690   -9.3170    0.0000 O.3     1  UNL1       -0.3841
     26 O           2.5369   -8.3170    0.0000 O.3     1  UNL1       -0.3864
     27 O           2.5369   -6.3170    0.0000 O.3     1  UNL1       -0.3865
     28 O           5.1350   -4.8170    0.0000 O.3     1  UNL1       -0.3924
     29 C          12.9585   -0.1202    0.0000 C.3     1  UNL1       -0.0233
     30 C          13.8264   -0.6168    0.0000 C.3     1  UNL1       -0.0295
     31 C          13.1640    0.8525    0.0000 C.3     1  UNL1       -0.0015
     32 C          13.8303   -1.6168    0.0000 C.3     1  UNL1       -0.0306
     33 C          14.1523    0.9593    0.0000 C.3     1  UNL1        0.0660
     34 C          14.5609    0.0531    0.0000 C.3     1  UNL1       -0.0226
     35 C          12.9662   -2.1202    0.0000 C.3     1  UNL1       -0.0285
     36 C          12.7617    1.7551    0.0000 C.3     1  UNL1        0.0160
     37 C          12.0944   -0.6235    0.0000 C.3     1  UNL1       -0.0467
     38 C          13.4946    2.4178    0.0000 C.3     1  UNL1        0.1741
     39 C          12.0983   -1.6235    0.0000 C.3     1  UNL1       -0.0486
     40 C          12.9542   -3.1617    0.0000 C.3     1  UNL1       -0.0078
     41 C          12.0906    0.3765    0.0000 C.3     1  UNL1       -0.0590
     42 C          14.7422   -2.1201    0.0000 C.3     1  UNL1       -0.0311
     43 C          13.8542   -3.6860    0.0000 C.2     1  UNL1       -0.0648
     44 C          12.6271    2.9153    0.0000 C.3     1  UNL1        0.0044
     45 C          12.0043   -3.6860    0.0000 C.3     1  UNL1       -0.0413
     46 C          11.7833    1.9617    0.0000 C.3     1  UNL1       -0.0572
     47 C          14.7543   -3.1617    0.0000 C.2     1  UNL1       -0.0839
     48 C          13.8263    4.0015    0.0000 C.3     1  UNL1        0.0934
     49 C          12.0901   -2.6584    0.0000 C.3     1  UNL1       -0.0556
     50 C          12.8321    3.8940    0.0000 C.3     1  UNL1       -0.0168
     51 C          13.8668   -4.7709    0.0000 C.3     1  UNL1       -0.0047
     52 C          11.9917   -4.7709    0.0000 C.3     1  UNL1       -0.0254
     53 C          12.9292   -5.3170    0.0000 C.3     1  UNL1        0.0655
     54 C          13.7188    4.9957    0.0000 C.3     1  UNL1        0.0796
     55 C          14.7386    4.4110    0.0000 C.3     1  UNL1       -0.0335
     56 C          12.0632   -6.8170    0.0000 C.3     1  UNL1        0.1886
     57 C          12.6965    6.3939    0.0000 C.3     1  UNL1        0.1880
     58 C          12.0632   -7.8170    0.0000 C.3     1  UNL1        0.1406
     59 C          11.1972   -8.3170    0.0000 C.3     1  UNL1        0.1148
     60 C          13.5038    6.9841    0.0000 C.3     1  UNL1        0.1341
     61 C          10.3312   -6.8170    0.0000 C.3     1  UNL1        0.1134
     62 C          10.3312   -7.8170    0.0000 C.3     1  UNL1        0.1184
     63 C          13.3963    7.9783    0.0000 C.3     1  UNL1        0.1141
     64 C          11.6743    7.7921    0.0000 C.3     1  UNL1        0.1130
     65 C          12.4815    8.3824    0.0000 C.3     1  UNL1        0.1119
     66 C           9.4651   -6.3170    0.0000 C.3     1  UNL1        0.0730
     67 C          13.7953   -7.8170    0.0000 C.3     1  UNL1        0.1884
     68 C          10.7595    8.1962    0.0000 C.3     1  UNL1        0.0730
     69 C          14.6613   -8.3170    0.0000 C.3     1  UNL1        0.1341
     70 C           8.5991   -7.8170    0.0000 C.3     1  UNL1        0.1884
     71 C          15.5273   -7.8170    0.0000 C.3     1  UNL1        0.1140
     72 C          14.6613   -6.3170    0.0000 C.3     1  UNL1        0.0873
     73 C           7.7331   -8.3170    0.0000 C.3     1  UNL1        0.1345
     74 C          15.5273   -6.8170    0.0000 C.3     1  UNL1        0.1095
     75 C           6.8671   -7.8170    0.0000 C.3     1  UNL1        0.1206
     76 C           7.7331   -6.3170    0.0000 C.3     1  UNL1        0.1130
     77 C           6.8671   -6.8170    0.0000 C.3     1  UNL1        0.1123
     78 C          14.6613   -5.3170    0.0000 C.3     1  UNL1       -0.0361
     79 C           7.7331   -5.3170    0.0000 C.3     1  UNL1        0.0730
     80 C           5.1350   -7.8170    0.0000 C.3     1  UNL1        0.1884
     81 C           4.2690   -8.3170    0.0000 C.3     1  UNL1        0.1341
     82 C           3.4030   -7.8170    0.0000 C.3     1  UNL1        0.1141
     83 C           4.2690   -6.3170    0.0000 C.3     1  UNL1        0.1130
     84 C           3.4030   -6.8170    0.0000 C.3     1  UNL1        0.1119
     85 C           4.2690   -5.3170    0.0000 C.3     1  UNL1        0.0730
     86 H          14.6047   -0.9585    0.0000 H       1  UNL1        0.0310
     87 H          12.3187    0.7629    0.0000 H       1  UNL1        0.0335
     88 H          14.5615   -1.1833    0.0000 H       1  UNL1        0.0310
     89 H          14.9972    1.0525    0.0000 H       1  UNL1        0.0600
     90 H          14.9283   -0.4463    0.0000 H       1  UNL1        0.0293
     91 H          15.0962    0.3659    0.0000 H       1  UNL1        0.0293
     92 H          13.7007   -2.5480    0.0000 H       1  UNL1        0.0312
     93 H          12.3719    1.2729    0.0000 H       1  UNL1        0.0354
     94 H          11.8801   -0.0417    0.0000 H       1  UNL1        0.0271
     95 H          11.4842   -0.7335    0.0000 H       1  UNL1        0.0271
     96 H          11.4873   -1.5182    0.0000 H       1  UNL1        0.0268
     97 H          11.8885   -2.2069    0.0000 H       1  UNL1        0.0268
     98 H          12.3985    0.9146    0.0000 H       1  UNL1        0.0235
     99 H          11.5524    0.6844    0.0000 H       1  UNL1        0.0235
    100 H          11.7826   -0.1616    0.0000 H       1  UNL1        0.0235
    101 H          15.3543   -2.2192    0.0000 H       1  UNL1        0.0310
    102 H          14.9445   -1.5341    0.0000 H       1  UNL1        0.0310
    103 H          12.0369    3.1051    0.0000 H       1  UNL1        0.0318
    104 H          12.3766    2.3481    0.0000 H       1  UNL1        0.0318
    105 H          11.8020   -3.0999    0.0000 H       1  UNL1        0.0274
    106 H          11.3922   -3.7850    0.0000 H       1  UNL1        0.0274
    107 H          11.9114    2.5684    0.0000 H       1  UNL1        0.0234
    108 H          11.1766    2.0899    0.0000 H       1  UNL1        0.0234
    109 H          11.6551    1.3551    0.0000 H       1  UNL1        0.0234
    110 H          15.2936   -3.4676    0.0000 H       1  UNL1        0.0572
    111 H          12.4021   -2.1226    0.0000 H       1  UNL1        0.0238
    112 H          11.5543   -2.3463    0.0000 H       1  UNL1        0.0238
    113 H          11.7780   -3.1941    0.0000 H       1  UNL1        0.0238
    114 H          12.8302    4.5140    0.0000 H       1  UNL1        0.0295
    115 H          12.2153    3.9570    0.0000 H       1  UNL1        0.0295
    116 H          14.0826   -5.3522    0.0000 H       1  UNL1        0.0335
    117 H          14.4764   -4.6578    0.0000 H       1  UNL1        0.0335
    118 H          11.3821   -4.6578    0.0000 H       1  UNL1        0.0290
    119 H          11.7759   -5.3522    0.0000 H       1  UNL1        0.0290
    120 H          12.3917   -5.6260    0.0000 H       1  UNL1        0.0600
    121 H          14.3374    4.9543    0.0000 H       1  UNL1        0.0589
    122 H          13.8670    5.5977    0.0000 H       1  UNL1        0.0589
    123 H          14.9925    3.8454    0.0000 H       1  UNL1        0.0258
    124 H          15.3043    4.6649    0.0000 H       1  UNL1        0.0258
    125 H          14.4848    4.9766    0.0000 H       1  UNL1        0.0258
    126 H          12.6002   -7.1270    0.0000 H       1  UNL1        0.0938
    127 H          12.1960    6.0280    0.0000 H       1  UNL1        0.0937
    128 H          12.0632   -8.4370    0.0000 H       1  UNL1        0.0675
    129 H          10.6603   -8.6270    0.0000 H       1  UNL1        0.0648
    130 H          14.0043    7.3501    0.0000 H       1  UNL1        0.0671
    131 H          10.3312   -6.1970    0.0000 H       1  UNL1        0.0647
    132 H          10.3312   -8.4370    0.0000 H       1  UNL1        0.0651
    133 H          13.9635    7.7279    0.0000 H       1  UNL1        0.0648
    134 H          11.1738    7.4262    0.0000 H       1  UNL1        0.0647
    135 H          12.9820    8.7483    0.0000 H       1  UNL1        0.0647
    136 H           8.8546   -6.2094    0.0000 H       1  UNL1        0.0584
    137 H           9.2531   -6.8996    0.0000 H       1  UNL1        0.0584
    138 H          13.7953   -8.4370    0.0000 H       1  UNL1        0.0938
    139 H          10.6603   -9.6270    0.0000 H       1  UNL1        0.2100
    140 H          14.9191    6.9461    0.0000 H       1  UNL1        0.2101
    141 H          11.1047    8.7112    0.0000 H       1  UNL1        0.0584
    142 H          10.3123    8.6255    0.0000 H       1  UNL1        0.0584
    143 H          14.1369    9.1850    0.0000 H       1  UNL1        0.2100
    144 H          15.1982   -8.6270    0.0000 H       1  UNL1        0.0671
    145 H           8.5991   -8.4370    0.0000 H       1  UNL1        0.0938
    146 H          11.8069    9.6270    0.0000 H       1  UNL1        0.2100
    147 H           8.9282   -5.0070    0.0000 H       1  UNL1        0.2095
    148 H          16.0643   -7.5070    0.0000 H       1  UNL1        0.0648
    149 H          14.1244   -6.0070    0.0000 H       1  UNL1        0.0621
    150 H           7.1962   -8.6270    0.0000 H       1  UNL1        0.0671
    151 H          15.5273   -6.1970    0.0000 H       1  UNL1        0.0646
    152 H           9.3851    7.8564    0.0000 H       1  UNL1        0.2095
    153 H           6.3301   -7.5070    0.0000 H       1  UNL1        0.0651
    154 H          15.1982   -9.6270    0.0000 H       1  UNL1        0.2101
    155 H           8.2700   -6.0070    0.0000 H       1  UNL1        0.0647
    156 H           6.8671   -6.1970    0.0000 H       1  UNL1        0.0647
    157 H          15.2813   -5.3170    0.0000 H       1  UNL1        0.0255
    158 H          14.6613   -4.6970    0.0000 H       1  UNL1        0.0255
    159 H          14.0413   -5.3170    0.0000 H       1  UNL1        0.0255
    160 H          16.9303   -8.0070    0.0000 H       1  UNL1        0.2100
    161 H           7.1962   -9.6270    0.0000 H       1  UNL1        0.2101
    162 H          16.9303   -6.6270    0.0000 H       1  UNL1        0.2100
    163 H           8.3437   -5.4247    0.0000 H       1  UNL1        0.0584
    164 H           7.9451   -4.7344    0.0000 H       1  UNL1        0.0584
    165 H           6.0010   -5.6970    0.0000 H       1  UNL1        0.2100
    166 H           5.1350   -8.4370    0.0000 H       1  UNL1        0.0938
    167 H           3.7320   -8.6270    0.0000 H       1  UNL1        0.0671
    168 H           6.8671   -4.1970    0.0000 H       1  UNL1        0.2095
    169 H           2.8660   -7.5070    0.0000 H       1  UNL1        0.0648
    170 H           4.8059   -6.0070    0.0000 H       1  UNL1        0.0647
    171 H           3.4030   -6.1970    0.0000 H       1  UNL1        0.0647
    172 H           3.7320   -9.6270    0.0000 H       1  UNL1        0.2101
    173 H           4.0569   -4.7344    0.0000 H       1  UNL1        0.0584
    174 H           3.6584   -5.4247    0.0000 H       1  UNL1        0.0584
    175 H           2.0000   -8.0070    0.0000 H       1  UNL1        0.2100
    176 H           2.5369   -5.6970    0.0000 H       1  UNL1        0.2100
    177 H           5.1350   -4.1970    0.0000 H       1  UNL1        0.2095
@<TRIPOS>BOND
     1     1    33    1
     2    38     1    1
     3     2    38    1
     4     2    48    1
     5    53     3    1
     6    56     3    1
     7     4    54    1
     8    57     4    1
     9     5    56    1
    10     5    61    1
    11     6    57    1
    12     6    64    1
    13    58     7    1
    14    67     7    1
    15    59     8    1
    16     8   139    1
    17    60     9    1
    18     9   140    1
    19    62    10    1
    20    70    10    1
    21    63    11    1
    22    11   143    1
    23    65    12    1
    24    12   146    1
    25    13    67    1
    26    13    72    1
    27    14    66    1
    28    14   147    1
    29    15    68    1
    30    15   152    1
    31    16    70    1
    32    16    76    1
    33    69    17    1
    34    17   154    1
    35    71    18    1
    36    18   160    1
    37    73    19    1
    38    19   161    1
    39    74    20    1
    40    20   162    1
    41    75    21    1
    42    80    21    1
    43    77    22    1
    44    22   165    1
    45    23    79    1
    46    23   168    1
    47    24    80    1
    48    24    83    1
    49    81    25    1
    50    25   172    1
    51    82    26    1
    52    26   175    1
    53    84    27    1
    54    27   176    1
    55    28    85    1
    56    28   177    1
    57    29    30    1
    58    29    31    1
    59    29    37    1
    60    29    41    1
    61    30    32    1
    62    30    34    1
    63    30    86    1
    64    31    33    1
    65    31    36    1
    66    31    87    1
    67    32    35    1
    68    32    42    1
    69    32    88    1
    70    33    34    1
    71    33    89    1
    72    34    90    1
    73    34    91    1
    74    35    39    1
    75    35    40    1
    76    35    92    1
    77    36    38    1
    78    36    46    1
    79    36    93    1
    80    37    39    1
    81    37    94    1
    82    37    95    1
    83    38    44    1
    84    39    96    1
    85    39    97    1
    86    40    43    1
    87    40    45    1
    88    40    49    1
    89    41    98    1
    90    41    99    1
    91    41   100    1
    92    42    47    1
    93    42   101    1
    94    42   102    1
    95    43    47    2
    96    43    51    1
    97    44    50    1
    98    44   103    1
    99    44   104    1
   100    45    52    1
   101    45   105    1
   102    45   106    1
   103    46   107    1
   104    46   108    1
   105    46   109    1
   106    47   110    1
   107    48    50    1
   108    48    54    1
   109    48    55    1
   110    49   111    1
   111    49   112    1
   112    49   113    1
   113    50   114    1
   114    50   115    1
   115    51    53    1
   116    51   116    1
   117    51   117    1
   118    52    53    1
   119    52   118    1
   120    52   119    1
   121    53   120    1
   122    54   121    1
   123    54   122    1
   124    55   123    1
   125    55   124    1
   126    55   125    1
   127    56    58    1
   128    56   126    1
   129    57    60    1
   130    57   127    1
   131    58    59    1
   132    58   128    1
   133    59    62    1
   134    59   129    1
   135    60    63    1
   136    60   130    1
   137    61    62    1
   138    61    66    1
   139    61   131    1
   140    62   132    1
   141    63    65    1
   142    63   133    1
   143    64    65    1
   144    64    68    1
   145    64   134    1
   146    65   135    1
   147    66   136    1
   148    66   137    1
   149    67    69    1
   150    67   138    1
   151    68   141    1
   152    68   142    1
   153    69    71    1
   154    69   144    1
   155    70    73    1
   156    70   145    1
   157    71    74    1
   158    71   148    1
   159    72    74    1
   160    72    78    1
   161    72   149    1
   162    73    75    1
   163    73   150    1
   164    74   151    1
   165    75    77    1
   166    75   153    1
   167    76    77    1
   168    76    79    1
   169    76   155    1
   170    77   156    1
   171    78   157    1
   172    78   158    1
   173    78   159    1
   174    79   163    1
   175    79   164    1
   176    80    81    1
   177    80   166    1
   178    81    82    1
   179    81   167    1
   180    82    84    1
   181    82   169    1
   182    83    84    1
   183    83    85    1
   184    83   170    1
   185    84   171    1
   186    85   173    1
   187    85   174    1
