@<TRIPOS>MOLECULE
IMPHY015662
 11 10 0 0 0
SMALL
GASTEIGER

@<TRIPOS>ATOM
      1 O           3.7320   -0.5600    0.0000 O.3     1  UNL1       -0.4671
      2 O           2.0000   -0.5600    0.0000 O.2     1  UNL1       -0.2546
      3 C           4.5981   -0.0600    0.0000 C.3     1  UNL1        0.0894
      4 C           5.4641   -0.5600    0.0000 C.3     1  UNL1       -0.0306
      5 C           2.8660   -0.0600    0.0000 C.2     1  UNL1        0.2942
      6 H           4.9966    0.4149    0.0000 H       1  UNL1        0.0694
      7 H           4.1996    0.4149    0.0000 H       1  UNL1        0.0694
      8 H           5.1541   -1.0969    0.0000 H       1  UNL1        0.0262
      9 H           6.0010   -0.8700    0.0000 H       1  UNL1        0.0262
     10 H           5.7741   -0.0231    0.0000 H       1  UNL1        0.0262
     11 H           2.8660    0.5600    0.0000 H       1  UNL1        0.1511
@<TRIPOS>BOND
     1     1     3    1
     2     1     5    1
     3     2     5    2
     4     3     4    1
     5     3     6    1
     6     3     7    1
     7     4     8    1
     8     4     9    1
     9     4    10    1
    10     5    11    1
