@<TRIPOS>MOLECULE
IMPHY002761
 67 69 0 0 0
SMALL
GASTEIGER

@<TRIPOS>ATOM
      1 O           5.1350   -1.2500    0.0000 O.3     1  UNL1       -0.5057
      2 O           8.5991   -1.2500    0.0000 O.3     1  UNL1       -0.5064
      3 O           8.5991    2.7500    0.0000 O.3     1  UNL1       -0.4571
      4 O           4.2690   -2.7500    0.0000 O.2     1  UNL1       -0.2872
      5 O           2.5369   -5.7500    0.0000 O.3     1  UNL1       -0.5061
      6 O          12.0632    7.7500    0.0000 O.3     1  UNL1       -0.4914
      7 O          10.3312    2.7500    0.0000 O.2     1  UNL1       -0.2456
      8 O           4.2690   -8.7500    0.0000 O.3     1  UNL1       -0.5066
      9 O          10.3312    8.7500    0.0000 O.3     1  UNL1       -0.5033
     10 C           6.8671   -1.2500    0.0000 C.ar    1  UNL1        0.0398
     11 C           6.8671   -0.2500    0.0000 C.3     1  UNL1       -0.0022
     12 C           6.0010   -1.7500    0.0000 C.ar    1  UNL1        0.1346
     13 C           6.0010   -2.7500    0.0000 C.ar    1  UNL1        0.0635
     14 C           7.7331   -1.7500    0.0000 C.ar    1  UNL1        0.1238
     15 C           7.7331    0.2500    0.0000 C.2     1  UNL1       -0.0773
     16 C           7.7331    1.2500    0.0000 C.2     1  UNL1       -0.0393
     17 C           6.8671   -3.2500    0.0000 C.ar    1  UNL1       -0.0440
     18 C           7.7331   -2.7500    0.0000 C.ar    1  UNL1       -0.0190
     19 C           8.5991    1.7500    0.0000 C.3     1  UNL1        0.1137
     20 C           5.1350   -3.2500    0.0000 C.2     1  UNL1        0.1896
     21 C           6.8671    1.7500    0.0000 C.3     1  UNL1       -0.0406
     22 C           5.1350   -4.2500    0.0000 C.2     1  UNL1       -0.0136
     23 C           4.2690   -4.7500    0.0000 C.2     1  UNL1       -0.0475
     24 C           4.2690   -5.7500    0.0000 C.ar    1  UNL1        0.0168
     25 C           3.4030   -6.2500    0.0000 C.ar    1  UNL1        0.1274
     26 C           5.1350   -6.2500    0.0000 C.ar    1  UNL1       -0.0477
     27 C          10.3312    5.7500    0.0000 C.ar    1  UNL1       -0.0211
     28 C           9.4651    3.2500    0.0000 C.2     1  UNL1        0.3323
     29 C          10.3312    4.7500    0.0000 C.2     1  UNL1       -0.0477
     30 C           3.4030   -7.2500    0.0000 C.ar    1  UNL1        0.0219
     31 C           9.4651    4.2500    0.0000 C.2     1  UNL1        0.0231
     32 C          11.1972    6.2500    0.0000 C.ar    1  UNL1       -0.0092
     33 C           5.1350   -7.2500    0.0000 C.ar    1  UNL1       -0.0194
     34 C          11.1972    7.2500    0.0000 C.ar    1  UNL1        0.1618
     35 C           9.4651    6.2500    0.0000 C.ar    1  UNL1       -0.0509
     36 C           4.2690   -7.7500    0.0000 C.ar    1  UNL1        0.1204
     37 C          10.3312    7.7500    0.0000 C.ar    1  UNL1        0.1585
     38 C           9.4651    7.2500    0.0000 C.ar    1  UNL1       -0.0160
     39 C          12.9292    7.2500    0.0000 C.3     1  UNL1        0.0790
     40 H           6.6550    0.3326    0.0000 H       1  UNL1        0.0358
     41 H           6.2565   -0.3577    0.0000 H       1  UNL1        0.0358
     42 H           8.2700   -0.0600    0.0000 H       1  UNL1        0.0576
     43 H           6.8671   -3.8700    0.0000 H       1  UNL1        0.0627
     44 H           8.2700   -3.0600    0.0000 H       1  UNL1        0.0654
     45 H           8.8112    1.1674    0.0000 H       1  UNL1        0.0745
     46 H           9.2097    1.8577    0.0000 H       1  UNL1        0.0745
     47 H           7.1771    2.2869    0.0000 H       1  UNL1        0.0275
     48 H           6.3301    2.0600    0.0000 H       1  UNL1        0.0275
     49 H           6.5571    1.2131    0.0000 H       1  UNL1        0.0275
     50 H           5.6720   -4.5600    0.0000 H       1  UNL1        0.0656
     51 H           5.1350   -0.6300    0.0000 H       1  UNL1        0.2922
     52 H           9.1360   -1.5600    0.0000 H       1  UNL1        0.2921
     53 H           3.7320   -4.4400    0.0000 H       1  UNL1        0.0626
     54 H           5.6720   -5.9400    0.0000 H       1  UNL1        0.0626
     55 H          10.8681    4.4400    0.0000 H       1  UNL1        0.0626
     56 H          11.7341    5.9400    0.0000 H       1  UNL1        0.0661
     57 H           2.8660   -7.5600    0.0000 H       1  UNL1        0.0691
     58 H           8.9282    4.5600    0.0000 H       1  UNL1        0.0689
     59 H           5.6720   -7.5600    0.0000 H       1  UNL1        0.0654
     60 H           8.9282    5.9400    0.0000 H       1  UNL1        0.0625
     61 H           8.9282    7.5600    0.0000 H       1  UNL1        0.0655
     62 H           2.0000   -6.0600    0.0000 H       1  UNL1        0.2922
     63 H           4.8059   -9.0600    0.0000 H       1  UNL1        0.2921
     64 H           9.7942    9.0600    0.0000 H       1  UNL1        0.2923
     65 H          12.6192    6.7131    0.0000 H       1  UNL1        0.0660
     66 H          13.4662    6.9400    0.0000 H       1  UNL1        0.0660
     67 H          13.2392    7.7869    0.0000 H       1  UNL1        0.0660
@<TRIPOS>BOND
     1     1    12    1
     2     1    51    1
     3     2    14    1
     4     2    52    1
     5     3    19    1
     6     3    28    1
     7     4    20    2
     8     5    25    1
     9     5    62    1
    10     6    34    1
    11     6    39    1
    12     7    28    2
    13     8    36    1
    14     8    63    1
    15     9    37    1
    16     9    64    1
    17    10    11    1
    18    10    12   ar
    19    10    14   ar
    20    11    15    1
    21    11    40    1
    22    11    41    1
    23    12    13   ar
    24    13    17   ar
    25    13    20    1
    26    14    18   ar
    27    15    16    2
    28    15    42    1
    29    16    19    1
    30    16    21    1
    31    17    18   ar
    32    17    43    1
    33    18    44    1
    34    19    45    1
    35    19    46    1
    36    20    22    1
    37    21    47    1
    38    21    48    1
    39    21    49    1
    40    22    23    2
    41    22    50    1
    42    23    24    1
    43    23    53    1
    44    24    25   ar
    45    24    26   ar
    46    25    30   ar
    47    26    33   ar
    48    26    54    1
    49    27    29    1
    50    27    32   ar
    51    27    35   ar
    52    28    31    1
    53    29    31    2
    54    29    55    1
    55    30    36   ar
    56    30    57    1
    57    31    58    1
    58    32    34   ar
    59    32    56    1
    60    33    36   ar
    61    33    59    1
    62    34    37   ar
    63    35    38   ar
    64    35    60    1
    65    37    38   ar
    66    38    61    1
    67    39    65    1
    68    39    66    1
    69    39    67    1
