@<TRIPOS>MOLECULE
IMPHY016085
 45 46 0 0 0
SMALL
GASTEIGER

@<TRIPOS>ATOM
      1 O           2.8660    2.2500    0.0000 O.3     1  UNL1       -0.4604
      2 O           3.7320    3.7500    0.0000 O.2     1  UNL1       -0.2512
      3 C           5.4641   -2.2500    0.0000 C.3     1  UNL1       -0.0162
      4 C           4.5981   -2.7500    0.0000 C.3     1  UNL1       -0.0373
      5 C           5.4641   -1.2500    0.0000 C.2     1  UNL1       -0.0604
      6 C           4.5981   -0.7500    0.0000 C.3     1  UNL1       -0.0010
      7 C           6.4103   -2.5547    0.0000 C.3     1  UNL1       -0.0426
      8 C           3.7320   -2.2500    0.0000 C.3     1  UNL1       -0.0491
      9 C           3.7320   -1.2500    0.0000 C.3     1  UNL1       -0.0428
     10 C           6.9939   -1.7500    0.0000 C.3     1  UNL1       -0.0312
     11 C           6.4103   -0.9453    0.0000 C.2     1  UNL1       -0.0725
     12 C           4.5981   -3.7500    0.0000 C.3     1  UNL1       -0.0619
     13 C           4.5981    0.2500    0.0000 C.2     1  UNL1       -0.0747
     14 C           6.7210    0.0053    0.0000 C.3     1  UNL1       -0.0435
     15 C           3.7320    0.7500    0.0000 C.2     1  UNL1       -0.0391
     16 C           3.7320    1.7500    0.0000 C.3     1  UNL1        0.1133
     17 C           2.8660    0.2500    0.0000 C.3     1  UNL1       -0.0406
     18 C           2.8660    3.2500    0.0000 C.2     1  UNL1        0.3042
     19 C           2.0000    3.7500    0.0000 C.3     1  UNL1        0.0332
     20 H           5.5297   -2.8665    0.0000 H       1  UNL1        0.0349
     21 H           5.1350   -3.0600    0.0000 H       1  UNL1        0.0304
     22 H           5.1350   -0.4400    0.0000 H       1  UNL1        0.0388
     23 H           6.1593   -3.1216    0.0000 H       1  UNL1        0.0274
     24 H           6.9477   -2.8640    0.0000 H       1  UNL1        0.0274
     25 H           3.1215   -2.1423    0.0000 H       1  UNL1        0.0268
     26 H           3.5200   -2.8326    0.0000 H       1  UNL1        0.0268
     27 H           3.5200   -0.6674    0.0000 H       1  UNL1        0.0274
     28 H           3.1215   -1.3577    0.0000 H       1  UNL1        0.0274
     29 H           7.4548   -2.1647    0.0000 H       1  UNL1        0.0310
     30 H           7.4548   -1.3353    0.0000 H       1  UNL1        0.0310
     31 H           3.9781   -3.7500    0.0000 H       1  UNL1        0.0233
     32 H           4.5981   -4.3700    0.0000 H       1  UNL1        0.0233
     33 H           5.2181   -3.7500    0.0000 H       1  UNL1        0.0233
     34 H           5.1350    0.5600    0.0000 H       1  UNL1        0.0579
     35 H           7.3103   -0.1874    0.0000 H       1  UNL1        0.0274
     36 H           6.9136    0.5946    0.0000 H       1  UNL1        0.0274
     37 H           6.1317    0.1979    0.0000 H       1  UNL1        0.0274
     38 H           4.3426    1.6423    0.0000 H       1  UNL1        0.0745
     39 H           3.9441    2.3326    0.0000 H       1  UNL1        0.0745
     40 H           2.5560    0.7869    0.0000 H       1  UNL1        0.0275
     41 H           2.3291   -0.0600    0.0000 H       1  UNL1        0.0275
     42 H           3.1760   -0.2869    0.0000 H       1  UNL1        0.0275
     43 H           2.3100    4.2869    0.0000 H       1  UNL1        0.0342
     44 H           1.4631    4.0600    0.0000 H       1  UNL1        0.0342
     45 H           1.6900    3.2131    0.0000 H       1  UNL1        0.0342
@<TRIPOS>BOND
     1     1    16    1
     2     1    18    1
     3     2    18    2
     4     3     4    1
     5     3     5    1
     6     3     7    1
     7     3    20    1
     8     4     8    1
     9     4    12    1
    10     4    21    1
    11     5     6    1
    12     5    11    2
    13     6     9    1
    14     6    13    1
    15     6    22    1
    16     7    10    1
    17     7    23    1
    18     7    24    1
    19     8     9    1
    20     8    25    1
    21     8    26    1
    22     9    27    1
    23     9    28    1
    24    10    11    1
    25    10    29    1
    26    10    30    1
    27    11    14    1
    28    12    31    1
    29    12    32    1
    30    12    33    1
    31    13    15    2
    32    13    34    1
    33    14    35    1
    34    14    36    1
    35    14    37    1
    36    15    16    1
    37    15    17    1
    38    16    38    1
    39    16    39    1
    40    17    40    1
    41    17    41    1
    42    17    42    1
    43    18    19    1
    44    19    43    1
    45    19    44    1
    46    19    45    1
