@<TRIPOS>MOLECULE
IMPHY011126
 79 82 0 0 0
SMALL
GASTEIGER

@<TRIPOS>ATOM
      1 O           7.9174   -2.2390    0.0000 O.3     1  UNL1       -0.3837
      2 O           5.3194    0.2610    0.0000 O.3     1  UNL1       -0.3912
      3 O          10.1248    0.7056    0.0000 O.3     1  UNL1       -0.3860
      4 O           2.5405   -1.1997    0.0000 O.3     1  UNL1       -0.3892
      5 O           6.1733   -4.3082    0.0000 O.2     1  UNL1       -0.2924
      6 O           2.5244   -3.2913    0.0000 O.3     1  UNL1       -0.3892
      7 O           8.8172    2.7111    0.0000 O.3     1  UNL1       -0.3890
      8 O          12.7312    3.5360    0.0000 O.3     1  UNL1       -0.3891
      9 C           7.9174   -0.2390    0.0000 C.3     1  UNL1        0.0084
     10 C           7.9174   -1.2390    0.0000 C.3     1  UNL1        0.0935
     11 C           8.8637    0.0657    0.0000 C.3     1  UNL1       -0.0015
     12 C           6.1854   -1.2390    0.0000 C.3     1  UNL1        0.0153
     13 C           5.2754   -1.7458    0.0000 C.3     1  UNL1       -0.0108
     14 C           7.0514    0.2610    0.0000 C.3     1  UNL1       -0.0176
     15 C           7.0514   -1.7390    0.0000 C.2     1  UNL1       -0.0286
     16 C           8.8637   -1.5437    0.0000 C.3     1  UNL1       -0.0192
     17 C           6.1854   -0.2390    0.0000 C.3     1  UNL1        0.0629
     18 C           9.4473   -0.7390    0.0000 C.3     1  UNL1       -0.0440
     19 C           5.2674   -2.7874    0.0000 C.3     1  UNL1        0.0300
     20 C           9.1743    1.0163    0.0000 C.3     1  UNL1        0.0924
     21 C           7.9174    0.7610    0.0000 C.3     1  UNL1       -0.0562
     22 C           4.3486   -1.1818    0.0000 C.3     1  UNL1       -0.0177
     23 C           7.0675   -2.7805    0.0000 C.2     1  UNL1       -0.0166
     24 C           4.3319   -3.3372    0.0000 C.3     1  UNL1       -0.0141
     25 C           5.2831   -0.7459    0.0000 C.3     1  UNL1       -0.0582
     26 C           6.1694   -3.3082    0.0000 C.2     1  UNL1        0.1598
     27 C           3.4007   -1.7097    0.0000 C.3     1  UNL1        0.0816
     28 C           3.3923   -2.7947    0.0000 C.3     1  UNL1        0.0817
     29 C           9.4850    1.9668    0.0000 C.3     1  UNL1        0.0840
     30 C           8.2238    1.3269    0.0000 C.3     1  UNL1       -0.0334
     31 C          10.4635    2.1730    0.0000 C.3     1  UNL1       -0.0216
     32 C          10.7742    3.1235    0.0000 C.3     1  UNL1       -0.0221
     33 C          11.7527    3.3297    0.0000 C.3     1  UNL1        0.0606
     34 C          11.5464    4.3082    0.0000 C.3     1  UNL1       -0.0363
     35 C          11.9589    2.3512    0.0000 C.3     1  UNL1       -0.0363
     36 H           9.7034    0.1976    0.0000 H       1  UNL1        0.0336
     37 H           6.9215   -0.8140    0.0000 H       1  UNL1        0.0377
     38 H           7.4500    0.7360    0.0000 H       1  UNL1        0.0297
     39 H           6.6529    0.7360    0.0000 H       1  UNL1        0.0297
     40 H           8.6126   -2.1106    0.0000 H       1  UNL1        0.0296
     41 H           9.4010   -1.8530    0.0000 H       1  UNL1        0.0296
     42 H           6.1854    0.3810    0.0000 H       1  UNL1        0.0599
     43 H           9.9081   -1.1537    0.0000 H       1  UNL1        0.0270
     44 H           9.9081   -0.3243    0.0000 H       1  UNL1        0.0270
     45 H           5.2706   -3.6374    0.0000 H       1  UNL1        0.0387
     46 H           8.5374    0.7610    0.0000 H       1  UNL1        0.0236
     47 H           7.9174    1.3810    0.0000 H       1  UNL1        0.0236
     48 H           7.2974    0.7610    0.0000 H       1  UNL1        0.0236
     49 H           4.7568   -0.7151    0.0000 H       1  UNL1        0.0297
     50 H           3.9586   -0.6997    0.0000 H       1  UNL1        0.0297
     51 H           7.6080   -3.0843    0.0000 H       1  UNL1        0.0653
     52 H           3.9346   -3.8131    0.0000 H       1  UNL1        0.0298
     53 H           4.7329   -3.8101    0.0000 H       1  UNL1        0.0298
     54 H           5.9031   -0.7506    0.0000 H       1  UNL1        0.0235
     55 H           5.2879   -0.1259    0.0000 H       1  UNL1        0.0235
     56 H           4.6631   -0.7411    0.0000 H       1  UNL1        0.0235
     57 H           2.8608   -2.0145    0.0000 H       1  UNL1        0.0619
     58 H           8.4544   -2.5490    0.0000 H       1  UNL1        0.2106
     59 H           2.8572   -2.4816    0.0000 H       1  UNL1        0.0619
     60 H           8.8783    1.8389    0.0000 H       1  UNL1        0.0622
     61 H           8.4164    1.9162    0.0000 H       1  UNL1        0.0258
     62 H           7.6345    1.5195    0.0000 H       1  UNL1        0.0258
     63 H           8.0312    0.7376    0.0000 H       1  UNL1        0.0258
     64 H           5.3194    0.8810    0.0000 H       1  UNL1        0.2098
     65 H          10.5863    1.1197    0.0000 H       1  UNL1        0.2103
     66 H          10.4841    1.5533    0.0000 H       1  UNL1        0.0292
     67 H          11.0773    2.0856    0.0000 H       1  UNL1        0.0292
     68 H           2.0000   -1.5035    0.0000 H       1  UNL1        0.2099
     69 H           2.5220   -3.9113    0.0000 H       1  UNL1        0.2099
     70 H           9.0098    3.3004    0.0000 H       1  UNL1        0.2099
     71 H          10.7536    3.7432    0.0000 H       1  UNL1        0.0293
     72 H          10.1603    3.2109    0.0000 H       1  UNL1        0.0293
     73 H          12.1531    4.4361    0.0000 H       1  UNL1        0.0257
     74 H          11.4186    4.9149    0.0000 H       1  UNL1        0.0257
     75 H          10.9398    4.1804    0.0000 H       1  UNL1        0.0257
     76 H          11.3522    2.2234    0.0000 H       1  UNL1        0.0257
     77 H          12.0867    1.7446    0.0000 H       1  UNL1        0.0257
     78 H          12.5656    2.4791    0.0000 H       1  UNL1        0.0257
     79 H          12.9238    4.1253    0.0000 H       1  UNL1        0.2101
@<TRIPOS>BOND
     1    10     1    1
     2     1    58    1
     3    17     2    1
     4     2    64    1
     5    20     3    1
     6     3    65    1
     7    27     4    1
     8     4    68    1
     9     5    26    2
    10    28     6    1
    11     6    69    1
    12    29     7    1
    13     7    70    1
    14     8    33    1
    15     8    79    1
    16     9    10    1
    17     9    11    1
    18     9    14    1
    19     9    21    1
    20    10    15    1
    21    10    16    1
    22    11    18    1
    23    11    20    1
    24    11    36    1
    25    12    13    1
    26    12    15    1
    27    12    17    1
    28    12    37    1
    29    13    19    1
    30    13    22    1
    31    13    25    1
    32    14    17    1
    33    14    38    1
    34    14    39    1
    35    15    23    2
    36    16    18    1
    37    16    40    1
    38    16    41    1
    39    17    42    1
    40    18    43    1
    41    18    44    1
    42    19    24    1
    43    19    26    1
    44    19    45    1
    45    20    29    1
    46    20    30    1
    47    21    46    1
    48    21    47    1
    49    21    48    1
    50    22    27    1
    51    22    49    1
    52    22    50    1
    53    23    26    1
    54    23    51    1
    55    24    28    1
    56    24    52    1
    57    24    53    1
    58    25    54    1
    59    25    55    1
    60    25    56    1
    61    27    28    1
    62    27    57    1
    63    28    59    1
    64    29    31    1
    65    29    60    1
    66    30    61    1
    67    30    62    1
    68    30    63    1
    69    31    32    1
    70    31    66    1
    71    31    67    1
    72    32    33    1
    73    32    71    1
    74    32    72    1
    75    33    34    1
    76    33    35    1
    77    34    73    1
    78    34    74    1
    79    34    75    1
    80    35    76    1
    81    35    77    1
    82    35    78    1
