@<TRIPOS>MOLECULE
IMPHY003799
 37 38 0 0 0
SMALL
GASTEIGER

@<TRIPOS>ATOM
      1 O           4.3723   -2.0614    0.0000 O.3     1  UNL1       -0.4533
      2 O           2.8836   -3.0304    0.0000 O.2     1  UNL1       -0.2453
      3 C           3.7155   -0.5896    0.0000 C.3     1  UNL1        0.0314
      4 C           4.5816   -1.0896    0.0000 C.3     1  UNL1        0.1288
      5 C           3.7155    0.4104    0.0000 C.3     1  UNL1       -0.0386
      6 C           2.9785   -1.2566    0.0000 C.2     1  UNL1        0.0364
      7 C           4.5816    0.9104    0.0000 C.3     1  UNL1       -0.0313
      8 C           5.4476   -0.5896    0.0000 C.2     1  UNL1       -0.0444
      9 C           4.5816    1.9104    0.0000 C.2     1  UNL1       -0.0765
     10 C           5.4476    0.4104    0.0000 C.2     1  UNL1       -0.0728
     11 C           3.3836   -2.1644    0.0000 C.2     1  UNL1        0.3356
     12 C           6.3136    0.9104    0.0000 C.3     1  UNL1       -0.0284
     13 C           6.3136    1.9104    0.0000 C.3     1  UNL1       -0.0308
     14 C           5.4476    2.4104    0.0000 C.2     1  UNL1       -0.0847
     15 C           2.0000   -1.0504    0.0000 C.2     1  UNL1       -0.0883
     16 C           3.7155    2.4104    0.0000 C.3     1  UNL1       -0.0438
     17 C           5.2424    0.9743    0.0000 C.3     1  UNL1       -0.0437
     18 H           2.9386   -0.2448    0.0000 H       1  UNL1        0.0390
     19 H           5.2686   -1.5901    0.0000 H       1  UNL1        0.0785
     20 H           3.5035    0.9931    0.0000 H       1  UNL1        0.0275
     21 H           3.1049    0.3028    0.0000 H       1  UNL1        0.0275
     22 H           4.7936    0.3278    0.0000 H       1  UNL1        0.0310
     23 H           5.1921    1.0181    0.0000 H       1  UNL1        0.0310
     24 H           5.9845   -0.8996    0.0000 H       1  UNL1        0.0608
     25 H           6.5256    0.3278    0.0000 H       1  UNL1        0.0313
     26 H           6.9242    1.0181    0.0000 H       1  UNL1        0.0313
     27 H           6.9242    1.8028    0.0000 H       1  UNL1        0.0310
     28 H           6.5256    2.4931    0.0000 H       1  UNL1        0.0310
     29 H           5.4476    3.0304    0.0000 H       1  UNL1        0.0572
     30 H           1.8074   -0.4611    0.0000 H       1  UNL1        0.0540
     31 H           1.5859   -1.5119    0.0000 H       1  UNL1        0.0540
     32 H           4.0255    2.9474    0.0000 H       1  UNL1        0.0274
     33 H           3.1786    2.7204    0.0000 H       1  UNL1        0.0274
     34 H           3.4055    1.8735    0.0000 H       1  UNL1        0.0274
     35 H           5.8250    1.1863    0.0000 H       1  UNL1        0.0274
     36 H           5.0303    1.5569    0.0000 H       1  UNL1        0.0274
     37 H           4.6598    0.7622    0.0000 H       1  UNL1        0.0274
@<TRIPOS>BOND
     1     1     4    1
     2     1    11    1
     3     2    11    2
     4     3     4    1
     5     3     5    1
     6     3     6    1
     7     3    18    1
     8     4     8    1
     9     4    19    1
    10     5     7    1
    11     5    20    1
    12     5    21    1
    13     6    11    1
    14     6    15    2
    15     7     9    1
    16     7    22    1
    17     7    23    1
    18     8    10    2
    19     8    24    1
    20     9    14    2
    21     9    16    1
    22    10    12    1
    23    10    17    1
    24    12    13    1
    25    12    25    1
    26    12    26    1
    27    13    14    1
    28    13    27    1
    29    13    28    1
    30    14    29    1
    31    15    30    1
    32    15    31    1
    33    16    32    1
    34    16    33    1
    35    16    34    1
    36    17    35    1
    37    17    36    1
    38    17    37    1
