@<TRIPOS>MOLECULE
IMPHY005250
 18 17 0 0 0
SMALL
GASTEIGER

@<TRIPOS>ATOM
      1 S           2.5369    0.7500    0.0000 S.3     1  UNL1       -0.1777
      2 O           6.0010    0.7500    0.0000 O.3     1  UNL1       -0.4649
      3 O           5.1350   -0.7500    0.0000 O.2     1  UNL1       -0.2508
      4 C           4.2690    0.7500    0.0000 C.3     1  UNL1        0.0537
      5 C           3.4030    0.2500    0.0000 C.3     1  UNL1        0.0007
      6 C           5.1350    0.2500    0.0000 C.2     1  UNL1        0.3078
      7 C           6.8671    0.2500    0.0000 C.3     1  UNL1        0.0896
      8 C           7.7331    0.7500    0.0000 C.3     1  UNL1       -0.0306
      9 H           4.6675    1.2250    0.0000 H       1  UNL1        0.0385
     10 H           3.8705    1.2250    0.0000 H       1  UNL1        0.0385
     11 H           3.0044   -0.2249    0.0000 H       1  UNL1        0.0379
     12 H           3.8015   -0.2249    0.0000 H       1  UNL1        0.0379
     13 H           6.4685   -0.2249    0.0000 H       1  UNL1        0.0694
     14 H           7.2656   -0.2249    0.0000 H       1  UNL1        0.0694
     15 H           8.0431    0.2131    0.0000 H       1  UNL1        0.0262
     16 H           8.2700    1.0600    0.0000 H       1  UNL1        0.0262
     17 H           7.4231    1.2869    0.0000 H       1  UNL1        0.0262
     18 H           2.0000    0.4400    0.0000 H       1  UNL1        0.1016
@<TRIPOS>BOND
     1     1     5    1
     2     1    18    1
     3     2     6    1
     4     2     7    1
     5     3     6    2
     6     4     5    1
     7     4     6    1
     8     4     9    1
     9     4    10    1
    10     5    11    1
    11     5    12    1
    12     7     8    1
    13     7    13    1
    14     7    14    1
    15     8    15    1
    16     8    16    1
    17     8    17    1
