@<TRIPOS>MOLECULE
IMPHY004439
 131 140 0 0 0
SMALL
GASTEIGER

@<TRIPOS>ATOM
      1 O           6.2988   -0.2680    0.0000 O.2     1  UNL1       -0.4378
      2 O           9.0324    1.7228    0.0000 O.2     1  UNL1       -0.4378
      3 O           3.9791    3.6753    0.0000 O.3     1  UNL1       -0.5030
      4 O           8.6708   -2.8380    0.0000 O.3     1  UNL1       -0.5030
      5 O           5.9252    3.3049    0.0000 O.2     1  UNL1       -0.2832
      6 O           7.2891   -1.4184    0.0000 O.2     1  UNL1       -0.2832
      7 O           3.3646   -2.4918    0.0000 O.3     1  UNL1       -0.5055
      8 O          12.7115    1.8613    0.0000 O.3     1  UNL1       -0.5055
      9 O           5.7791   -6.4278    0.0000 O.3     1  UNL1       -0.5031
     10 O          12.9912    6.4704    0.0000 O.2     1  UNL1       -0.5030
     11 O           3.8069   -6.0957    0.0000 O.3     1  UNL1       -0.5028
     12 O          14.4163    5.0672    0.0000 O.2     1  UNL1       -0.2833
     13 O           2.4715   -4.9926    0.0000 O.2     1  UNL1       -0.2956
     14 N           6.8968    2.6965    0.0000 N.ar    1  UNL1       -0.2955
     15 N          14.8775    3.3976    0.0000 N.pl3   1  UNL1       -0.3632
     16 C           4.9720    0.8453    0.0000 C.ar    1  UNL1        0.0415
     17 C           9.4807    0.0497    0.0000 C.ar    1  UNL1        0.0415
     18 C           3.9491    1.0420    0.0000 C.ar    1  UNL1       -0.0062
     19 C          10.2058   -0.6981    0.0000 C.ar    1  UNL1       -0.0062
     20 C           5.3140   -0.0944    0.0000 C.ar    1  UNL1        0.1469
     21 C           9.7395    1.0156    0.0000 C.ar    1  UNL1        0.1469
     22 C           5.6148    1.6113    0.0000 C.ar    1  UNL1        0.0965
     23 C           8.5148   -0.2091    0.0000 C.ar    1  UNL1        0.0965
     24 C           4.6569   -0.9026    0.0000 C.ar    1  UNL1        0.0318
     25 C          10.7414    1.3007    0.0000 C.ar    1  UNL1        0.0318
     26 C           3.6457    1.9861    0.0000 C.ar    1  UNL1        0.0083
     27 C           9.9128   -1.6455    0.0000 C.ar    1  UNL1        0.0083
     28 C           7.6335    1.7139    0.0000 C.ar    1  UNL1        0.2133
     29 C           7.3746    0.7480    0.0000 C.ar    1  UNL1        0.2133
     30 C           3.6297   -0.7296    0.0000 C.ar    1  UNL1       -0.0385
     31 C          11.4836    0.5699    0.0000 C.ar    1  UNL1       -0.0385
     32 C           2.6670    2.1912    0.0000 C.3     1  UNL1       -0.0174
     33 C          10.5969   -2.3749    0.0000 C.3     1  UNL1       -0.0174
     34 C           5.0097   -1.8382    0.0000 C.ar    1  UNL1        0.0309
     35 C          10.9890    2.2696    0.0000 C.ar    1  UNL1        0.0309
     36 C           3.2734    0.2492    0.0000 C.ar    1  UNL1       -0.0499
     37 C          11.2140   -0.4363    0.0000 C.ar    1  UNL1       -0.0499
     38 C           5.2768    2.5437    0.0000 C.ar    1  UNL1        0.2331
     39 C           8.2569   -1.1667    0.0000 C.ar    1  UNL1        0.2331
     40 C           4.3026    2.7291    0.0000 C.ar    1  UNL1        0.1684
     41 C           8.9486   -1.8774    0.0000 C.ar    1  UNL1        0.1684
     42 C           6.0369   -2.0112    0.0000 C.ar    1  UNL1       -0.0385
     43 C          10.2468    3.0004    0.0000 C.ar    1  UNL1       -0.0385
     44 C           4.3526   -2.6464    0.0000 C.ar    1  UNL1        0.1334
     45 C          11.9909    2.5546    0.0000 C.ar    1  UNL1        0.1333
     46 C           5.7175   -3.7828    0.0000 C.ar    1  UNL1       -0.0063
     47 C          11.5246    4.2684    0.0000 C.ar    1  UNL1       -0.0064
     48 C           4.7314   -3.6167    0.0000 C.ar    1  UNL1        0.0384
     49 C          12.2371    3.5667    0.0000 C.ar    1  UNL1        0.0367
     50 C           6.0667   -4.7198    0.0000 C.ar    1  UNL1        0.0081
     51 C          11.7759    5.2363    0.0000 C.2     1  UNL1        0.0083
     52 C           6.3932   -2.9900    0.0000 C.ar    1  UNL1       -0.0499
     53 C          10.5164    4.0066    0.0000 C.ar    1  UNL1       -0.0499
     54 C           2.9899   -1.4981    0.0000 C.3     1  UNL1       -0.0390
     55 C          12.4485    0.8324    0.0000 C.3     1  UNL1       -0.0390
     56 C           2.3552    3.1413    0.0000 C.3     1  UNL1       -0.0585
     57 C           2.0000    1.4461    0.0000 C.3     1  UNL1       -0.0585
     58 C          10.3073   -3.3320    0.0000 C.3     1  UNL1       -0.0585
     59 C          11.5706   -2.1471    0.0000 C.3     1  UNL1       -0.0585
     60 C           7.0528   -4.8858    0.0000 C.3     1  UNL1       -0.0174
     61 C          11.0634    5.9379    0.0000 C.3     1  UNL1       -0.0174
     62 C          13.2010    3.8330    0.0000 C.2     1  UNL1        0.0498
     63 C           4.0945   -4.3877    0.0000 C.ar    1  UNL1        0.0704
     64 C           6.6767   -1.2427    0.0000 C.3     1  UNL1       -0.0390
     65 C           5.4299   -5.4908    0.0000 C.ar    1  UNL1        0.1630
     66 C           9.2819    2.7379    0.0000 C.3     1  UNL1       -0.0390
     67 C          12.7398    5.5025    0.0000 C.2     1  UNL1        0.1683
     68 C           4.4438   -5.3247    0.0000 C.ar    1  UNL1        0.1696
     69 C          13.4524    4.8009    0.0000 C.2     1  UNL1        0.2293
     70 C           7.4021   -5.8229    0.0000 C.3     1  UNL1       -0.0585
     71 C           7.6897   -4.1149    0.0000 C.3     1  UNL1       -0.0585
     72 C          11.3148    6.9058    0.0000 C.3     1  UNL1       -0.0585
     73 C          10.0995    5.6716    0.0000 C.3     1  UNL1       -0.0585
     74 C          13.9136    3.1314    0.0000 C.2     1  UNL1       -0.0014
     75 C           3.1084   -4.2216    0.0000 C.2     1  UNL1        0.1545
     76 H           2.8603    1.6021    0.0000 H       1  UNL1        0.0345
     77 H          10.7765   -1.7814    0.0000 H       1  UNL1        0.0345
     78 H           2.6633    0.3592    0.0000 H       1  UNL1        0.0627
     79 H          11.6507   -0.8764    0.0000 H       1  UNL1        0.0627
     80 H           6.5868    3.2335    0.0000 H       1  UNL1        0.1717
     81 H           7.0033   -3.1000    0.0000 H       1  UNL1        0.0627
     82 H          10.0797    4.4466    0.0000 H       1  UNL1        0.0627
     83 H           2.5134   -1.1014    0.0000 H       1  UNL1        0.0278
     84 H           2.5932   -1.9746    0.0000 H       1  UNL1        0.0278
     85 H           3.4664   -1.8948    0.0000 H       1  UNL1        0.0278
     86 H          12.6113    0.2342    0.0000 H       1  UNL1        0.0278
     87 H          13.0467    0.9952    0.0000 H       1  UNL1        0.0278
     88 H          12.2857    1.4307    0.0000 H       1  UNL1        0.0278
     89 H           1.5380    1.8596    0.0000 H       1  UNL1        0.0235
     90 H           1.5865    0.9841    0.0000 H       1  UNL1        0.0235
     91 H           2.4620    1.0326    0.0000 H       1  UNL1        0.0235
     92 H           2.9442    3.3346    0.0000 H       1  UNL1        0.0235
     93 H           2.1618    3.7304    0.0000 H       1  UNL1        0.0235
     94 H           1.7661    2.9480    0.0000 H       1  UNL1        0.0235
     95 H          11.7119   -2.7508    0.0000 H       1  UNL1        0.0235
     96 H          12.1743   -2.0058    0.0000 H       1  UNL1        0.0235
     97 H          11.4294   -1.5434    0.0000 H       1  UNL1        0.0235
     98 H           9.7139   -3.1525    0.0000 H       1  UNL1        0.0235
     99 H          10.1278   -3.9255    0.0000 H       1  UNL1        0.0235
    100 H          10.9008   -3.5116    0.0000 H       1  UNL1        0.0235
    101 H           7.6642   -4.9888    0.0000 H       1  UNL1        0.0345
    102 H          11.6610    6.1030    0.0000 H       1  UNL1        0.0345
    103 H           7.1532   -1.6394    0.0000 H       1  UNL1        0.0278
    104 H           7.0734   -0.7662    0.0000 H       1  UNL1        0.0278
    105 H           6.2002   -0.8460    0.0000 H       1  UNL1        0.0278
    106 H           9.1191    3.3361    0.0000 H       1  UNL1        0.0278
    107 H           8.6836    2.5751    0.0000 H       1  UNL1        0.0278
    108 H           9.4447    2.1396    0.0000 H       1  UNL1        0.0278
    109 H           4.3869    4.1423    0.0000 H       1  UNL1        0.2923
    110 H           9.1005   -3.2850    0.0000 H       1  UNL1        0.2923
    111 H           8.1677   -4.5097    0.0000 H       1  UNL1        0.0235
    112 H           8.0846   -3.6369    0.0000 H       1  UNL1        0.0235
    113 H           7.2117   -3.7200    0.0000 H       1  UNL1        0.0235
    114 H           6.8212   -6.0394    0.0000 H       1  UNL1        0.0235
    115 H           7.6186   -6.4038    0.0000 H       1  UNL1        0.0235
    116 H           7.9831   -5.6063    0.0000 H       1  UNL1        0.0235
    117 H          11.9149    6.7500    0.0000 H       1  UNL1        0.0235
    118 H          11.4706    7.5059    0.0000 H       1  UNL1        0.0235
    119 H          10.7147    7.0616    0.0000 H       1  UNL1        0.0235
    120 H           9.9344    6.2693    0.0000 H       1  UNL1        0.0235
    121 H           9.5019    5.5066    0.0000 H       1  UNL1        0.0235
    122 H          10.2646    5.0740    0.0000 H       1  UNL1        0.0235
    123 H           2.9753   -2.9743    0.0000 H       1  UNL1        0.2922
    124 H          13.3071    2.0333    0.0000 H       1  UNL1        0.2922
    125 H          13.7577    2.5313    0.0000 H       1  UNL1        0.0783
    126 H           2.8918   -3.6407    0.0000 H       1  UNL1        0.1083
    127 H           5.3843   -6.9058    0.0000 H       1  UNL1        0.2923
    128 H          13.5888    6.6355    0.0000 H       1  UNL1        0.2923
    129 H           4.0234   -6.6766    0.0000 H       1  UNL1        0.2923
    130 H          15.3192    2.9626    0.0000 H       1  UNL1        0.1418
    131 H          15.0333    3.9977    0.0000 H       1  UNL1        0.1418
@<TRIPOS>BOND
     1     1    20   ar
     2     1    29   ar
     3     2    21   ar
     4     2    28   ar
     5     3    40    1
     6     3   109    1
     7     4    41    1
     8     4   110    1
     9     5    38    2
    10     6    39    2
    11     7    44    1
    12     7   123    1
    13     8    45    1
    14     8   124    1
    15     9    65    1
    16     9   127    1
    17    10    67    1
    18    10   128    1
    19    11    68    1
    20    11   129    1
    21    12    69    2
    22    13    75    2
    23    14    28   ar
    24    14    29   ar
    25    14    80    1
    26    15    74    1
    27    15   130    1
    28    15   131    1
    29    16    18   ar
    30    16    20   ar
    31    16    22    1
    32    17    19   ar
    33    17    21   ar
    34    17    23    1
    35    18    26   ar
    36    18    36   ar
    37    19    27   ar
    38    19    37   ar
    39    20    24   ar
    40    21    25   ar
    41    22    28   ar
    42    22    38   ar
    43    23    29   ar
    44    23    39   ar
    45    24    30   ar
    46    24    34    1
    47    25    31   ar
    48    25    35    1
    49    26    32    1
    50    26    40   ar
    51    27    33    1
    52    27    41   ar
    53    30    36   ar
    54    30    54    1
    55    31    37   ar
    56    31    55    1
    57    32    56    1
    58    32    57    1
    59    32    76    1
    60    33    58    1
    61    33    59    1
    62    33    77    1
    63    34    42   ar
    64    34    44   ar
    65    35    43   ar
    66    35    45   ar
    67    36    78    1
    68    37    79    1
    69    38    40   ar
    70    39    41   ar
    71    42    52   ar
    72    42    64    1
    73    43    53   ar
    74    43    66    1
    75    44    48   ar
    76    45    49   ar
    77    46    48   ar
    78    46    50   ar
    79    46    52   ar
    80    47    49   ar
    81    47    51    1
    82    47    53   ar
    83    48    63   ar
    84    49    62    1
    85    50    60    1
    86    50    65   ar
    87    51    61    1
    88    51    67    2
    89    52    81    1
    90    53    82    1
    91    54    83    1
    92    54    84    1
    93    54    85    1
    94    55    86    1
    95    55    87    1
    96    55    88    1
    97    56    92    1
    98    56    93    1
    99    56    94    1
   100    57    89    1
   101    57    90    1
   102    57    91    1
   103    58    98    1
   104    58    99    1
   105    58   100    1
   106    59    95    1
   107    59    96    1
   108    59    97    1
   109    60    70    1
   110    60    71    1
   111    60   101    1
   112    61    72    1
   113    61    73    1
   114    61   102    1
   115    62    69    1
   116    62    74    2
   117    63    68   ar
   118    63    75    1
   119    64   103    1
   120    64   104    1
   121    64   105    1
   122    65    68   ar
   123    66   106    1
   124    66   107    1
   125    66   108    1
   126    67    69    1
   127    70   114    1
   128    70   115    1
   129    70   116    1
   130    71   111    1
   131    71   112    1
   132    71   113    1
   133    72   117    1
   134    72   118    1
   135    72   119    1
   136    73   120    1
   137    73   121    1
   138    73   122    1
   139    74   125    1
   140    75   126    1
