@<TRIPOS>MOLECULE
IMPHY014444
 51 55 0 0 0
SMALL
GASTEIGER

@<TRIPOS>ATOM
      1 O           5.7497    2.8819    0.0000 O.3     1  UNL1       -0.4641
      2 O           7.1333    1.7679    0.0000 O.2     1  UNL1       -0.2505
      3 O           3.4519   -2.7745    0.0000 O.3     1  UNL1       -0.4526
      4 O           2.0000   -1.9363    0.0000 O.3     1  UNL1       -0.4526
      5 O           5.4178   -1.6930    0.0000 O.3     1  UNL1       -0.4947
      6 O           8.8819    0.3070    0.0000 O.3     1  UNL1       -0.4914
      7 O           8.8819   -1.6930    0.0000 O.3     1  UNL1       -0.4913
      8 C           5.4178    1.3070    0.0000 C.3     1  UNL1        0.0735
      9 C           4.5518    1.8070    0.0000 C.3     1  UNL1        0.0110
     10 C           5.4178    0.3070    0.0000 C.3     1  UNL1        0.0264
     11 C           3.6857    1.3070    0.0000 C.3     1  UNL1       -0.0206
     12 C           4.5518   -0.1930    0.0000 C.ar    1  UNL1       -0.0322
     13 C           4.7610    2.7788    0.0000 C.3     1  UNL1        0.0964
     14 C           3.6857    0.3070    0.0000 C.ar    1  UNL1       -0.0395
     15 C           6.1548    1.9741    0.0000 C.2     1  UNL1        0.3115
     16 C           6.2838   -0.1930    0.0000 C.ar    1  UNL1        0.0061
     17 C           4.5678   -1.2345    0.0000 C.ar    1  UNL1       -0.0121
     18 C           2.7757   -0.1998    0.0000 C.ar    1  UNL1       -0.0127
     19 C           3.6698   -1.7623    0.0000 C.ar    1  UNL1        0.1665
     20 C           2.7677   -1.2414    0.0000 C.ar    1  UNL1        0.1665
     21 C           6.2838   -1.1930    0.0000 C.ar    1  UNL1        0.1276
     22 C           7.1498    0.3070    0.0000 C.ar    1  UNL1       -0.0091
     23 C           8.0159   -0.1930    0.0000 C.ar    1  UNL1        0.1620
     24 C           7.1498   -1.6930    0.0000 C.ar    1  UNL1        0.0257
     25 C           8.0159   -1.1930    0.0000 C.ar    1  UNL1        0.1650
     26 C           2.4220   -2.8819    0.0000 C.3     1  UNL1        0.2332
     27 C           5.4178   -2.6930    0.0000 C.3     1  UNL1        0.0788
     28 C           9.7479   -0.1930    0.0000 C.3     1  UNL1        0.0790
     29 C           8.8819   -2.6930    0.0000 C.3     1  UNL1        0.0790
     30 H           6.1947    0.9623    0.0000 H       1  UNL1        0.0427
     31 H           3.8647    2.3075    0.0000 H       1  UNL1        0.0345
     32 H           5.4178   -0.5430    0.0000 H       1  UNL1        0.0407
     33 H           3.4737    1.8896    0.0000 H       1  UNL1        0.0317
     34 H           3.0752    1.1993    0.0000 H       1  UNL1        0.0317
     35 H           4.7618    3.3988    0.0000 H       1  UNL1        0.0700
     36 H           4.1445    2.8449    0.0000 H       1  UNL1        0.0700
     37 H           5.1083   -1.5383    0.0000 H       1  UNL1        0.0658
     38 H           2.2424    0.1163    0.0000 H       1  UNL1        0.0658
     39 H           7.1498    0.9270    0.0000 H       1  UNL1        0.0659
     40 H           7.1498   -2.3130    0.0000 H       1  UNL1        0.0692
     41 H           1.8324   -3.0736    0.0000 H       1  UNL1        0.1166
     42 H           2.5507   -3.4884    0.0000 H       1  UNL1        0.1166
     43 H           4.7978   -2.6930    0.0000 H       1  UNL1        0.0660
     44 H           5.4178   -3.3130    0.0000 H       1  UNL1        0.0660
     45 H           6.0378   -2.6930    0.0000 H       1  UNL1        0.0660
     46 H           9.4379   -0.7299    0.0000 H       1  UNL1        0.0660
     47 H          10.2848   -0.5030    0.0000 H       1  UNL1        0.0660
     48 H          10.0579    0.3439    0.0000 H       1  UNL1        0.0660
     49 H           8.2619   -2.6930    0.0000 H       1  UNL1        0.0660
     50 H           8.8819   -3.3130    0.0000 H       1  UNL1        0.0660
     51 H           9.5019   -2.6930    0.0000 H       1  UNL1        0.0660
@<TRIPOS>BOND
     1     1    13    1
     2     1    15    1
     3     2    15    2
     4     3    19    1
     5     3    26    1
     6     4    20    1
     7     4    26    1
     8     5    21    1
     9     5    27    1
    10     6    23    1
    11     6    28    1
    12     7    25    1
    13     7    29    1
    14     8     9    1
    15     8    10    1
    16     8    15    1
    17     8    30    1
    18     9    11    1
    19     9    13    1
    20     9    31    1
    21    10    12    1
    22    10    16    1
    23    10    32    1
    24    11    14    1
    25    11    33    1
    26    11    34    1
    27    12    14   ar
    28    12    17   ar
    29    13    35    1
    30    13    36    1
    31    14    18   ar
    32    16    21   ar
    33    16    22   ar
    34    17    19   ar
    35    17    37    1
    36    18    20   ar
    37    18    38    1
    38    19    20   ar
    39    21    24   ar
    40    22    23   ar
    41    22    39    1
    42    23    25   ar
    43    24    25   ar
    44    24    40    1
    45    26    41    1
    46    26    42    1
    47    27    43    1
    48    27    44    1
    49    27    45    1
    50    28    46    1
    51    28    47    1
    52    28    48    1
    53    29    49    1
    54    29    50    1
    55    29    51    1
