@<TRIPOS>MOLECULE
IMPHY013384
 91 95 0 0 0
SMALL
GASTEIGER

@<TRIPOS>ATOM
      1 O           8.0622   -1.3362    0.0000 O.3     1  UNL1       -0.3302
      2 O          14.1350   -1.8518    0.0000 O.3     1  UNL1       -0.3313
      3 O           9.7942   -1.3362    0.0000 O.3     1  UNL1       -0.4598
      4 O          13.2864   -0.3419    0.0000 O.3     1  UNL1       -0.4515
      5 O           6.3301   -3.3362    0.0000 O.3     1  UNL1       -0.3864
      6 O           8.0622   -4.3362    0.0000 O.3     1  UNL1       -0.3864
      7 O           9.7942   -3.3362    0.0000 O.3     1  UNL1       -0.3829
      8 O          11.5198   -3.3216    0.0000 O.3     1  UNL1       -0.3864
      9 O          13.2402   -4.3416    0.0000 O.3     1  UNL1       -0.3865
     10 O          11.5429   -1.3218    0.0000 O.3     1  UNL1       -0.3829
     11 O           5.4641   -1.8362    0.0000 O.3     1  UNL1       -0.4616
     12 O          15.8554   -2.8718    0.0000 O.3     1  UNL1       -0.3924
     13 O          11.5776    1.6780    0.0000 O.2     1  UNL1       -0.1997
     14 O           8.0480    1.7430    0.0000 O.3     1  UNL1       -0.5063
     15 O           4.5981   -0.3362    0.0000 O.2     1  UNL1       -0.2504
     16 O          14.2044    4.1478    0.0000 O.3     1  UNL1       -0.4913
     17 O          15.9017    1.1280    0.0000 O.3     1  UNL1       -0.4913
     18 O          15.9248    3.1278    0.0000 O.3     1  UNL1       -0.5009
     19 O           2.8660   -0.3362    0.0000 O.2     1  UNL1       -0.2971
     20 C           7.1962   -2.8362    0.0000 C.3     1  UNL1        0.1130
     21 C           8.0622   -3.3362    0.0000 C.3     1  UNL1        0.1152
     22 C           7.1962   -1.8362    0.0000 C.3     1  UNL1        0.1250
     23 C           8.9282   -2.8362    0.0000 C.3     1  UNL1        0.1454
     24 C          12.3915   -2.8317    0.0000 C.3     1  UNL1        0.1152
     25 C          13.2517   -3.3417    0.0000 C.3     1  UNL1        0.1120
     26 C          12.4031   -1.8318    0.0000 C.3     1  UNL1        0.1454
     27 C          14.1235   -2.8517    0.0000 C.3     1  UNL1        0.1140
     28 C           8.9282   -1.8362    0.0000 C.3     1  UNL1        0.2309
     29 C          13.2749   -1.3418    0.0000 C.3     1  UNL1        0.2312
     30 C           6.3301   -1.3362    0.0000 C.3     1  UNL1        0.1212
     31 C          14.9837   -3.3617    0.0000 C.3     1  UNL1        0.0731
     32 C           9.7942   -0.3362    0.0000 C.ar    1  UNL1        0.1437
     33 C          12.4262    0.1681    0.0000 C.ar    1  UNL1        0.2288
     34 C          10.6943    0.1881    0.0000 C.ar    1  UNL1        0.1245
     35 C          11.5545   -0.3218    0.0000 C.ar    1  UNL1        0.0093
     36 C          12.4378    1.1680    0.0000 C.ar    1  UNL1        0.4047
     37 C          10.7059    1.1881    0.0000 C.ar    1  UNL1        0.3708
     38 C           8.8942    0.1881    0.0000 C.ar    1  UNL1        0.0229
     39 C           9.8182    1.7330    0.0000 C.ar    1  UNL1        0.0847
     40 C           8.9062    1.2297    0.0000 C.ar    1  UNL1        0.1293
     41 C          13.3095    1.6580    0.0000 C.ar    1  UNL1        0.0899
     42 C           4.5981   -1.3362    0.0000 C.2     1  UNL1        0.3144
     43 C           3.7320   -1.8362    0.0000 C.3     1  UNL1        0.1029
     44 C          14.1697    1.1480    0.0000 C.ar    1  UNL1        0.0002
     45 C          13.3211    2.6579    0.0000 C.ar    1  UNL1        0.0002
     46 C          14.1929    3.1479    0.0000 C.ar    1  UNL1        0.1658
     47 C          15.0415    1.6380    0.0000 C.ar    1  UNL1        0.1658
     48 C          15.0530    2.6379    0.0000 C.ar    1  UNL1        0.2011
     49 C           2.8660   -1.3362    0.0000 C.2     1  UNL1        0.1409
     50 C           2.0000   -1.8362    0.0000 C.3     1  UNL1       -0.0055
     51 C          13.3442    4.6578    0.0000 C.3     1  UNL1        0.0790
     52 C          16.7734    1.6179    0.0000 C.3     1  UNL1        0.0790
     53 H           6.6592   -2.5262    0.0000 H       1  UNL1        0.0647
     54 H           7.5252   -3.6462    0.0000 H       1  UNL1        0.0648
     55 H           7.1962   -1.2162    0.0000 H       1  UNL1        0.0658
     56 H           8.9282   -3.4562    0.0000 H       1  UNL1        0.0683
     57 H          12.9320   -2.5279    0.0000 H       1  UNL1        0.0648
     58 H          12.7112   -3.6454    0.0000 H       1  UNL1        0.0647
     59 H          11.8626   -2.1355    0.0000 H       1  UNL1        0.0683
     60 H          14.6640   -2.5480    0.0000 H       1  UNL1        0.0647
     61 H           9.4651   -2.1462    0.0000 H       1  UNL1        0.1084
     62 H          12.7415   -1.0256    0.0000 H       1  UNL1        0.1084
     63 H           6.7287   -0.8612    0.0000 H       1  UNL1        0.0724
     64 H           5.9316   -0.8612    0.0000 H       1  UNL1        0.0724
     65 H          14.5797   -3.8320    0.0000 H       1  UNL1        0.0584
     66 H          15.3767   -3.8412    0.0000 H       1  UNL1        0.0584
     67 H           6.3301   -3.9562    0.0000 H       1  UNL1        0.2100
     68 H           7.5252   -4.6461    0.0000 H       1  UNL1        0.2100
     69 H           9.7942   -3.9562    0.0000 H       1  UNL1        0.2102
     70 H          11.5126   -3.9416    0.0000 H       1  UNL1        0.2100
     71 H          13.7735   -4.6578    0.0000 H       1  UNL1        0.2100
     72 H          11.0024   -1.6256    0.0000 H       1  UNL1        0.2102
     73 H          11.5473   -0.9418    0.0000 H       1  UNL1        0.0667
     74 H           8.3549   -0.1177    0.0000 H       1  UNL1        0.0691
     75 H          16.3887   -3.1879    0.0000 H       1  UNL1        0.2095
     76 H           9.8325    2.3529    0.0000 H       1  UNL1        0.0749
     77 H           3.3335   -2.3111    0.0000 H       1  UNL1        0.0455
     78 H           4.1306   -2.3111    0.0000 H       1  UNL1        0.0455
     79 H          14.1626    0.5281    0.0000 H       1  UNL1        0.0664
     80 H          12.7878    2.9741    0.0000 H       1  UNL1        0.0664
     81 H           8.0576    2.3629    0.0000 H       1  UNL1        0.2921
     82 H           1.6900   -1.2992    0.0000 H       1  UNL1        0.0306
     83 H           1.4631   -2.1462    0.0000 H       1  UNL1        0.0306
     84 H           2.3100   -2.3731    0.0000 H       1  UNL1        0.0306
     85 H          15.9320    3.7478    0.0000 H       1  UNL1        0.2924
     86 H          13.6604    5.1911    0.0000 H       1  UNL1        0.0660
     87 H          12.8109    4.9740    0.0000 H       1  UNL1        0.0660
     88 H          13.0280    4.1245    0.0000 H       1  UNL1        0.0660
     89 H          17.0772    1.0774    0.0000 H       1  UNL1        0.0660
     90 H          17.3139    1.9217    0.0000 H       1  UNL1        0.0660
     91 H          16.4696    2.1584    0.0000 H       1  UNL1        0.0660
@<TRIPOS>UNITY_ATOM_ATTR
13 1
charge 1
@<TRIPOS>BOND
     1     1    22    1
     2     1    28    1
     3     2    27    1
     4     2    29    1
     5    28     3    1
     6     3    32    1
     7    29     4    1
     8     4    33    1
     9    20     5    1
    10     5    67    1
    11    21     6    1
    12     6    68    1
    13     7    23    1
    14     7    69    1
    15     8    24    1
    16     8    70    1
    17    25     9    1
    18     9    71    1
    19    10    26    1
    20    10    72    1
    21    11    30    1
    22    11    42    1
    23    12    31    1
    24    12    75    1
    25    13    36   ar
    26    13    37   ar
    27    14    40    1
    28    14    81    1
    29    15    42    2
    30    16    46    1
    31    16    51    1
    32    17    47    1
    33    17    52    1
    34    18    48    1
    35    18    85    1
    36    19    49    2
    37    20    21    1
    38    20    22    1
    39    20    53    1
    40    21    23    1
    41    21    54    1
    42    22    30    1
    43    22    55    1
    44    23    28    1
    45    23    56    1
    46    24    25    1
    47    24    26    1
    48    24    57    1
    49    25    27    1
    50    25    58    1
    51    26    29    1
    52    26    59    1
    53    27    31    1
    54    27    60    1
    55    28    61    1
    56    29    62    1
    57    30    63    1
    58    30    64    1
    59    31    65    1
    60    31    66    1
    61    32    34   ar
    62    32    38   ar
    63    33    35   ar
    64    33    36   ar
    65    34    35   ar
    66    34    37   ar
    67    35    73    1
    68    36    41    1
    69    37    39   ar
    70    38    40   ar
    71    38    74    1
    72    39    40   ar
    73    39    76    1
    74    41    44   ar
    75    41    45   ar
    76    42    43    1
    77    43    49    1
    78    43    77    1
    79    43    78    1
    80    44    47   ar
    81    44    79    1
    82    45    46   ar
    83    45    80    1
    84    46    48   ar
    85    47    48   ar
    86    49    50    1
    87    50    82    1
    88    50    83    1
    89    50    84    1
    90    51    86    1
    91    51    87    1
    92    51    88    1
    93    52    89    1
    94    52    90    1
    95    52    91    1
