@<TRIPOS>MOLECULE
IMPHY016281
 37 36 0 0 0
SMALL
GASTEIGER

@<TRIPOS>ATOM
      1 O           2.0000   -0.0600    0.0000 O.2     1  UNL1       -0.3008
      2 C           6.3301    0.4400    0.0000 C.3     1  UNL1       -0.0530
      3 C           7.1962   -0.0600    0.0000 C.3     1  UNL1       -0.0531
      4 C           5.4641   -0.0600    0.0000 C.3     1  UNL1       -0.0524
      5 C           8.0622    0.4400    0.0000 C.3     1  UNL1       -0.0531
      6 C           4.5981    0.4400    0.0000 C.3     1  UNL1       -0.0440
      7 C           8.9282   -0.0600    0.0000 C.3     1  UNL1       -0.0531
      8 C           3.7320   -0.0600    0.0000 C.3     1  UNL1        0.0117
      9 C           9.7942    0.4400    0.0000 C.3     1  UNL1       -0.0533
     10 C          10.6603   -0.0600    0.0000 C.3     1  UNL1       -0.0559
     11 C           3.7320   -1.0600    0.0000 C.3     1  UNL1       -0.0560
     12 C           2.8660    0.4400    0.0000 C.2     1  UNL1        0.1231
     13 C          11.5263    0.4400    0.0000 C.3     1  UNL1       -0.0653
     14 H           6.7287    0.9149    0.0000 H       1  UNL1        0.0265
     15 H           5.9316    0.9149    0.0000 H       1  UNL1        0.0265
     16 H           6.7976   -0.5349    0.0000 H       1  UNL1        0.0265
     17 H           7.5947   -0.5349    0.0000 H       1  UNL1        0.0265
     18 H           5.0656   -0.5349    0.0000 H       1  UNL1        0.0265
     19 H           5.8626   -0.5349    0.0000 H       1  UNL1        0.0265
     20 H           8.4607    0.9149    0.0000 H       1  UNL1        0.0265
     21 H           7.6636    0.9149    0.0000 H       1  UNL1        0.0265
     22 H           4.9966    0.9149    0.0000 H       1  UNL1        0.0272
     23 H           4.1996    0.9149    0.0000 H       1  UNL1        0.0272
     24 H           8.5297   -0.5349    0.0000 H       1  UNL1        0.0265
     25 H           9.3267   -0.5349    0.0000 H       1  UNL1        0.0265
     26 H           3.7320    0.5600    0.0000 H       1  UNL1        0.0372
     27 H          10.1928    0.9149    0.0000 H       1  UNL1        0.0265
     28 H           9.3957    0.9149    0.0000 H       1  UNL1        0.0265
     29 H          10.2617   -0.5349    0.0000 H       1  UNL1        0.0263
     30 H          11.0588   -0.5349    0.0000 H       1  UNL1        0.0263
     31 H           3.1120   -1.0600    0.0000 H       1  UNL1        0.0236
     32 H           3.7320   -1.6800    0.0000 H       1  UNL1        0.0236
     33 H           4.3520   -1.0600    0.0000 H       1  UNL1        0.0236
     34 H           2.8660    1.0600    0.0000 H       1  UNL1        0.1029
     35 H          11.8363   -0.0969    0.0000 H       1  UNL1        0.0230
     36 H          12.0632    0.7500    0.0000 H       1  UNL1        0.0230
     37 H          11.2163    0.9769    0.0000 H       1  UNL1        0.0230
@<TRIPOS>BOND
     1     1    12    2
     2     2     3    1
     3     2     4    1
     4     2    14    1
     5     2    15    1
     6     3     5    1
     7     3    16    1
     8     3    17    1
     9     4     6    1
    10     4    18    1
    11     4    19    1
    12     5     7    1
    13     5    20    1
    14     5    21    1
    15     6     8    1
    16     6    22    1
    17     6    23    1
    18     7     9    1
    19     7    24    1
    20     7    25    1
    21     8    11    1
    22     8    12    1
    23     8    26    1
    24     9    10    1
    25     9    27    1
    26     9    28    1
    27    10    13    1
    28    10    29    1
    29    10    30    1
    30    11    31    1
    31    11    32    1
    32    11    33    1
    33    12    34    1
    34    13    35    1
    35    13    36    1
    36    13    37    1
