@<TRIPOS>MOLECULE
IMPHY012974
 106 109 0 0 0
SMALL
GASTEIGER

@<TRIPOS>ATOM
      1 O           7.5299   13.0769    0.0000 O.3     1  UNL1       -0.4855
      2 O           5.7815   16.1115    0.0000 O.3     1  UNL1       -0.5063
      3 O           2.8999    6.6200    0.0000 O.3     2  UNL2       -0.5063
      4 O           6.4827    5.9464    0.0000 O.3     2  UNL2       -0.5063
      5 C           8.3960   14.5769    0.0000 C.3     1  UNL1        0.0091
      6 C           7.5299   15.0769    0.0000 C.3     1  UNL1        0.0158
      7 C           8.3960   13.5769    0.0000 C.3     1  UNL1        0.1087
      8 C           9.3060   15.0837    0.0000 C.3     1  UNL1       -0.0421
      9 C           6.6639   14.5769    0.0000 C.ar    1  UNL1        0.0428
     10 C           9.3140   16.1253    0.0000 C.3     1  UNL1       -0.0316
     11 C           7.5139   16.1184    0.0000 C.2     1  UNL1       -0.0770
     12 C           8.4119   16.6462    0.0000 C.2     1  UNL1       -0.0759
     13 C           8.8960   12.7109    0.0000 C.3     1  UNL1       -0.0249
     14 C           9.3960   13.5769    0.0000 C.3     1  UNL1       -0.0249
     15 C           6.6639   13.5769    0.0000 C.ar    1  UNL1        0.1288
     16 C           5.7700   15.1116    0.0000 C.ar    1  UNL1        0.1243
     17 C           5.7700   13.0422    0.0000 C.ar    1  UNL1       -0.0162
     18 C           8.4081   17.6461    0.0000 C.3     1  UNL1       -0.0438
     19 C           4.8639   13.5561    0.0000 C.ar    1  UNL1       -0.0404
     20 C           4.8639   14.5977    0.0000 C.ar    1  UNL1       -0.0165
     21 C           3.9998   13.0527    0.0000 C.3     1  UNL1       -0.0275
     22 C           5.4979    8.1200    0.0000 C.3     2  UNL2       -0.0096
     23 C           4.6319    7.6200    0.0000 C.3     2  UNL2        0.0158
     24 C           3.1319   13.5494    0.0000 C.3     1  UNL1       -0.0491
     25 C           5.4979    9.1200    0.0000 C.3     2  UNL2       -0.0420
     26 C           4.6319    9.6200    0.0000 C.3     2  UNL2       -0.0314
     27 C           3.7659    8.1200    0.0000 C.2     2  UNL2       -0.0768
     28 C           3.7659    9.1200    0.0000 C.2     2  UNL2       -0.0759
     29 C           4.6319    6.6200    0.0000 C.ar    2  UNL2        0.0427
     30 C           2.2678   13.0461    0.0000 C.3     1  UNL1       -0.0530
     31 C           6.4827    8.2936    0.0000 C.2     2  UNL2       -0.0757
     32 C           1.3998   13.5427    0.0000 C.3     1  UNL1       -0.0559
     33 C           3.7659    6.1200    0.0000 C.ar    2  UNL2        0.1243
     34 C           5.4979    6.1200    0.0000 C.ar    2  UNL2        0.1243
     35 C           2.8999    9.6200    0.0000 C.3     2  UNL2       -0.0438
     36 C           6.8248    9.2333    0.0000 C.3     2  UNL2       -0.0437
     37 C           7.1255    7.5276    0.0000 C.2     2  UNL2       -0.0994
     38 C           4.6319    4.6200    0.0000 C.ar    2  UNL2       -0.0405
     39 C           3.7659    5.1200    0.0000 C.ar    2  UNL2       -0.0165
     40 C           5.4979    5.1200    0.0000 C.ar    2  UNL2       -0.0165
     41 C           4.6319    3.6200    0.0000 C.3     2  UNL2       -0.0275
     42 C           0.5357   13.0394    0.0000 C.3     1  UNL1       -0.0653
     43 C           3.7659    3.1200    0.0000 C.3     2  UNL2       -0.0491
     44 C           3.7659    2.1200    0.0000 C.3     2  UNL2       -0.0530
     45 C           2.8999    1.6200    0.0000 C.3     2  UNL2       -0.0559
     46 C           2.8999    0.6200    0.0000 C.3     2  UNL2       -0.0653
     47 H           9.1288   14.1462    0.0000 H       1  UNL1        0.0348
     48 H           8.2628   15.5076    0.0000 H       1  UNL1        0.0398
     49 H           9.5105   14.4984    0.0000 H       1  UNL1        0.0272
     50 H           9.9176   15.1851    0.0000 H       1  UNL1        0.0272
     51 H           9.9240   16.0145    0.0000 H       1  UNL1        0.0310
     52 H           9.5275   16.7074    0.0000 H       1  UNL1        0.0310
     53 H           6.9734   16.4222    0.0000 H       1  UNL1        0.0578
     54 H           8.3590   12.4009    0.0000 H       1  UNL1        0.0268
     55 H           9.2060   12.1739    0.0000 H       1  UNL1        0.0268
     56 H           9.4329   13.0209    0.0000 H       1  UNL1        0.0268
     57 H           9.3960   12.9569    0.0000 H       1  UNL1        0.0268
     58 H          10.0160   13.5769    0.0000 H       1  UNL1        0.0268
     59 H           9.3960   14.1969    0.0000 H       1  UNL1        0.0268
     60 H           5.7771   12.4223    0.0000 H       1  UNL1        0.0657
     61 H           9.0281   17.6485    0.0000 H       1  UNL1        0.0274
     62 H           8.4057   18.2661    0.0000 H       1  UNL1        0.0274
     63 H           7.7881   17.6438    0.0000 H       1  UNL1        0.0274
     64 H           4.3282   14.9098    0.0000 H       1  UNL1        0.0657
     65 H           3.6031   12.5763    0.0000 H       1  UNL1        0.0313
     66 H           4.4002   12.5793    0.0000 H       1  UNL1        0.0313
     67 H           5.2482   16.4277    0.0000 H       1  UNL1        0.2921
     68 H           5.7100    7.5374    0.0000 H       2  UNL2        0.0354
     69 H           5.3680    7.1950    0.0000 H       2  UNL2        0.0399
     70 H           3.5286   14.0259    0.0000 H       1  UNL1        0.0268
     71 H           2.7315   14.0228    0.0000 H       1  UNL1        0.0268
     72 H           6.1085    9.0123    0.0000 H       2  UNL2        0.0274
     73 H           5.7100    9.7026    0.0000 H       2  UNL2        0.0274
     74 H           5.0304   10.0949    0.0000 H       2  UNL2        0.0310
     75 H           4.2334   10.0949    0.0000 H       2  UNL2        0.0310
     76 H           3.2290    7.8100    0.0000 H       2  UNL2        0.0578
     77 H           1.8711   12.5696    0.0000 H       1  UNL1        0.0265
     78 H           2.6681   12.5727    0.0000 H       1  UNL1        0.0265
     79 H           3.2099   10.1569    0.0000 H       2  UNL2        0.0274
     80 H           2.3629    9.9300    0.0000 H       2  UNL2        0.0274
     81 H           2.5899    9.0831    0.0000 H       2  UNL2        0.0274
     82 H           1.7965   14.0192    0.0000 H       1  UNL1        0.0263
     83 H           0.9995   14.0161    0.0000 H       1  UNL1        0.0263
     84 H           7.4074    9.0213    0.0000 H       2  UNL2        0.0274
     85 H           7.0368    9.8160    0.0000 H       2  UNL2        0.0274
     86 H           6.2422    9.4454    0.0000 H       2  UNL2        0.0274
     87 H           6.9135    6.9450    0.0000 H       2  UNL2        0.0534
     88 H           7.7361    7.6353    0.0000 H       2  UNL2        0.0534
     89 H           3.2290    4.8100    0.0000 H       2  UNL2        0.0657
     90 H           6.0349    4.8100    0.0000 H       2  UNL2        0.0657
     91 H           4.8440    3.0374    0.0000 H       2  UNL2        0.0313
     92 H           5.2425    3.7277    0.0000 H       2  UNL2        0.0313
     93 H           0.2237   13.5751    0.0000 H       1  UNL1        0.0230
     94 H           0.0000   12.7273    0.0000 H       1  UNL1        0.0230
     95 H           0.8478   12.5036    0.0000 H       1  UNL1        0.0230
     96 H           3.5538    3.7026    0.0000 H       2  UNL2        0.0268
     97 H           3.1553    3.0123    0.0000 H       2  UNL2        0.0268
     98 H           2.3629    6.3100    0.0000 H       2  UNL2        0.2921
     99 H           6.6948    5.3637    0.0000 H       2  UNL2        0.2921
    100 H           3.9779    1.5374    0.0000 H       2  UNL2        0.0265
    101 H           4.3765    2.2277    0.0000 H       2  UNL2        0.0265
    102 H           2.6878    2.2026    0.0000 H       2  UNL2        0.0263
    103 H           2.2893    1.5123    0.0000 H       2  UNL2        0.0263
    104 H           2.2799    0.6200    0.0000 H       2  UNL2        0.0230
    105 H           2.8999    0.0000    0.0000 H       2  UNL2        0.0230
    106 H           3.5199    0.6200    0.0000 H       2  UNL2        0.0230
@<TRIPOS>BOND
     1     1     7    1
     2     1    15    1
     3     2    16    1
     4     2    67    1
     5     3    33    1
     6     3    98    1
     7     4    34    1
     8     4    99    1
     9     5     6    1
    10     5     7    1
    11     5     8    1
    12     5    47    1
    13     6     9    1
    14     6    11    1
    15     6    48    1
    16     7    13    1
    17     7    14    1
    18     8    10    1
    19     8    49    1
    20     8    50    1
    21     9    15   ar
    22     9    16   ar
    23    10    12    1
    24    10    51    1
    25    10    52    1
    26    11    12    2
    27    11    53    1
    28    12    18    1
    29    13    54    1
    30    13    55    1
    31    13    56    1
    32    14    57    1
    33    14    58    1
    34    14    59    1
    35    15    17   ar
    36    16    20   ar
    37    17    19   ar
    38    17    60    1
    39    18    61    1
    40    18    62    1
    41    18    63    1
    42    19    20   ar
    43    19    21    1
    44    20    64    1
    45    21    24    1
    46    21    65    1
    47    21    66    1
    48    22    23    1
    49    22    25    1
    50    22    31    1
    51    22    68    1
    52    23    27    1
    53    23    29    1
    54    23    69    1
    55    24    30    1
    56    24    70    1
    57    24    71    1
    58    25    26    1
    59    25    72    1
    60    25    73    1
    61    26    28    1
    62    26    74    1
    63    26    75    1
    64    27    28    2
    65    27    76    1
    66    28    35    1
    67    29    33   ar
    68    29    34   ar
    69    30    32    1
    70    30    77    1
    71    30    78    1
    72    31    36    1
    73    31    37    2
    74    32    42    1
    75    32    82    1
    76    32    83    1
    77    33    39   ar
    78    34    40   ar
    79    35    79    1
    80    35    80    1
    81    35    81    1
    82    36    84    1
    83    36    85    1
    84    36    86    1
    85    37    87    1
    86    37    88    1
    87    38    39   ar
    88    38    40   ar
    89    38    41    1
    90    39    89    1
    91    40    90    1
    92    41    43    1
    93    41    91    1
    94    41    92    1
    95    42    93    1
    96    42    94    1
    97    42    95    1
    98    43    44    1
    99    43    96    1
   100    43    97    1
   101    44    45    1
   102    44   100    1
   103    44   101    1
   104    45    46    1
   105    45   102    1
   106    45   103    1
   107    46   104    1
   108    46   105    1
   109    46   106    1
