@<TRIPOS>MOLECULE
IMPHY009311
 33 33 0 0 0
SMALL
GASTEIGER

@<TRIPOS>ATOM
      1 O           3.7320   -0.4050    0.0000 O.3     1  UNL1       -0.4612
      2 O           5.4641   -0.4050    0.0000 O.2     1  UNL1       -0.2450
      3 O           2.8660    3.0950    0.0000 O.3     1  UNL1       -0.5032
      4 O           6.3301    3.0950    0.0000 O.3     1  UNL1       -0.5032
      5 O           4.5981    4.0950    0.0000 O.3     1  UNL1       -0.5009
      6 C           2.8660   -2.9050    0.0000 C.3     1  UNL1       -0.0502
      7 C           2.8660   -1.9050    0.0000 C.3     1  UNL1       -0.0185
      8 C           2.0000   -3.4050    0.0000 C.3     1  UNL1       -0.0558
      9 C           3.7320   -1.4050    0.0000 C.3     1  UNL1        0.0928
     10 C           2.0000   -4.4050    0.0000 C.3     1  UNL1       -0.0653
     11 C           4.5981    1.0950    0.0000 C.ar    1  UNL1        0.0661
     12 C           4.5981    0.0950    0.0000 C.2     1  UNL1        0.3394
     13 C           5.4641    1.5950    0.0000 C.ar    1  UNL1       -0.0023
     14 C           3.7320    1.5950    0.0000 C.ar    1  UNL1       -0.0023
     15 C           3.7320    2.5950    0.0000 C.ar    1  UNL1        0.1628
     16 C           5.4641    2.5950    0.0000 C.ar    1  UNL1        0.1628
     17 C           4.5981    3.0950    0.0000 C.ar    1  UNL1        0.2006
     18 H           3.0781   -3.4876    0.0000 H       1  UNL1        0.0266
     19 H           3.4766   -2.7973    0.0000 H       1  UNL1        0.0266
     20 H           2.6540   -1.3224    0.0000 H       1  UNL1        0.0298
     21 H           2.2554   -2.0127    0.0000 H       1  UNL1        0.0298
     22 H           1.7880   -2.8224    0.0000 H       1  UNL1        0.0263
     23 H           1.3894   -3.5127    0.0000 H       1  UNL1        0.0263
     24 H           3.9441   -1.9876    0.0000 H       1  UNL1        0.0697
     25 H           4.3426   -1.2973    0.0000 H       1  UNL1        0.0697
     26 H           1.3800   -4.4050    0.0000 H       1  UNL1        0.0230
     27 H           2.0000   -5.0250    0.0000 H       1  UNL1        0.0230
     28 H           2.6200   -4.4050    0.0000 H       1  UNL1        0.0230
     29 H           6.0010    1.2850    0.0000 H       1  UNL1        0.0663
     30 H           3.1951    1.2850    0.0000 H       1  UNL1        0.0663
     31 H           2.3291    2.7850    0.0000 H       1  UNL1        0.2923
     32 H           6.8671    2.7850    0.0000 H       1  UNL1        0.2923
     33 H           5.1350    4.4050    0.0000 H       1  UNL1        0.2924
@<TRIPOS>BOND
     1     1     9    1
     2     1    12    1
     3     2    12    2
     4     3    15    1
     5     3    31    1
     6     4    16    1
     7     4    32    1
     8     5    17    1
     9     5    33    1
    10     6     7    1
    11     6     8    1
    12     6    18    1
    13     6    19    1
    14     7     9    1
    15     7    20    1
    16     7    21    1
    17     8    10    1
    18     8    22    1
    19     8    23    1
    20     9    24    1
    21     9    25    1
    22    10    26    1
    23    10    27    1
    24    10    28    1
    25    11    12    1
    26    11    13   ar
    27    11    14   ar
    28    13    16   ar
    29    13    29    1
    30    14    15   ar
    31    14    30    1
    32    15    17   ar
    33    16    17   ar
