@<TRIPOS>MOLECULE
IMPHY008915
 75 74 0 0 0
SMALL
GASTEIGER

@<TRIPOS>ATOM
      1 O           2.0000    0.2500    0.0000 O.2     1  UNL1       -0.2963
      2 C          21.0526    0.2500    0.0000 C.3     1  UNL1       -0.0283
      3 C          21.9186   -0.2500    0.0000 C.3     1  UNL1       -0.0308
      4 C          20.1865   -0.2500    0.0000 C.2     1  UNL1       -0.0723
      5 C          22.7846    0.2500    0.0000 C.2     1  UNL1       -0.0850
      6 C          23.6506   -0.2500    0.0000 C.2     1  UNL1       -0.0796
      7 C          20.1865   -1.2500    0.0000 C.3     1  UNL1       -0.0435
      8 C          19.3205    0.2500    0.0000 C.2     1  UNL1       -0.0628
      9 C          24.5167    0.2500    0.0000 C.3     1  UNL1       -0.0440
     10 C          23.6506   -1.2500    0.0000 C.3     1  UNL1       -0.0440
     11 C          18.4545   -0.2500    0.0000 C.2     1  UNL1       -0.0616
     12 C          17.5885    0.2500    0.0000 C.2     1  UNL1       -0.0588
     13 C          16.7224   -0.2500    0.0000 C.2     1  UNL1       -0.0504
     14 C          15.8564    0.2500    0.0000 C.2     1  UNL1       -0.0588
     15 C          16.7224   -1.2500    0.0000 C.3     1  UNL1       -0.0397
     16 C          14.9904   -0.2500    0.0000 C.2     1  UNL1       -0.0613
     17 C          13.2583   -0.2500    0.0000 C.2     1  UNL1       -0.0504
     18 C          14.1244    0.2500    0.0000 C.2     1  UNL1       -0.0588
     19 C          12.3923    0.2500    0.0000 C.2     1  UNL1       -0.0588
     20 C          13.2583   -1.2500    0.0000 C.3     1  UNL1       -0.0397
     21 C           8.9282    0.2500    0.0000 C.2     1  UNL1       -0.0504
     22 C          11.5263   -0.2500    0.0000 C.2     1  UNL1       -0.0615
     23 C           9.7942   -0.2500    0.0000 C.2     1  UNL1       -0.0588
     24 C          10.6603    0.2500    0.0000 C.2     1  UNL1       -0.0615
     25 C           8.0622   -0.2500    0.0000 C.2     1  UNL1       -0.0588
     26 C           8.9282    1.2500    0.0000 C.3     1  UNL1       -0.0397
     27 C           7.1962    0.2500    0.0000 C.2     1  UNL1       -0.0613
     28 C           5.4641    0.2500    0.0000 C.2     1  UNL1       -0.0504
     29 C           6.3301   -0.2500    0.0000 C.2     1  UNL1       -0.0588
     30 C           5.4641    1.2500    0.0000 C.3     1  UNL1       -0.0397
     31 C           4.5981   -0.2500    0.0000 C.2     1  UNL1       -0.0558
     32 C           3.7320    0.2500    0.0000 C.2     1  UNL1       -0.0222
     33 C           2.8660   -0.2500    0.0000 C.2     1  UNL1        0.1431
     34 H          21.4511    0.7249    0.0000 H       1  UNL1        0.0313
     35 H          20.6540    0.7249    0.0000 H       1  UNL1        0.0313
     36 H          21.5201   -0.7249    0.0000 H       1  UNL1        0.0310
     37 H          22.3171   -0.7249    0.0000 H       1  UNL1        0.0310
     38 H          22.7846    0.8700    0.0000 H       1  UNL1        0.0572
     39 H          19.5665   -1.2500    0.0000 H       1  UNL1        0.0274
     40 H          20.1865   -1.8700    0.0000 H       1  UNL1        0.0274
     41 H          20.8065   -1.2500    0.0000 H       1  UNL1        0.0274
     42 H          19.3205    0.8700    0.0000 H       1  UNL1        0.0617
     43 H          24.8267   -0.2869    0.0000 H       1  UNL1        0.0274
     44 H          25.0536    0.5600    0.0000 H       1  UNL1        0.0274
     45 H          24.2067    0.7869    0.0000 H       1  UNL1        0.0274
     46 H          23.0306   -1.2500    0.0000 H       1  UNL1        0.0274
     47 H          23.6506   -1.8700    0.0000 H       1  UNL1        0.0274
     48 H          24.2706   -1.2500    0.0000 H       1  UNL1        0.0274
     49 H          18.4545   -0.8700    0.0000 H       1  UNL1        0.0618
     50 H          17.5885    0.8700    0.0000 H       1  UNL1        0.0620
     51 H          15.8564    0.8700    0.0000 H       1  UNL1        0.0620
     52 H          16.1024   -1.2500    0.0000 H       1  UNL1        0.0278
     53 H          16.7224   -1.8700    0.0000 H       1  UNL1        0.0278
     54 H          17.3424   -1.2500    0.0000 H       1  UNL1        0.0278
     55 H          14.9904   -0.8700    0.0000 H       1  UNL1        0.0618
     56 H          14.1244    0.8700    0.0000 H       1  UNL1        0.0620
     57 H          12.3923    0.8700    0.0000 H       1  UNL1        0.0620
     58 H          12.6383   -1.2500    0.0000 H       1  UNL1        0.0278
     59 H          13.2583   -1.8700    0.0000 H       1  UNL1        0.0278
     60 H          13.8783   -1.2500    0.0000 H       1  UNL1        0.0278
     61 H          11.5263   -0.8700    0.0000 H       1  UNL1        0.0618
     62 H           9.7942   -0.8700    0.0000 H       1  UNL1        0.0620
     63 H          10.6603    0.8700    0.0000 H       1  UNL1        0.0618
     64 H           8.0622   -0.8700    0.0000 H       1  UNL1        0.0620
     65 H           9.5482    1.2500    0.0000 H       1  UNL1        0.0278
     66 H           8.9282    1.8700    0.0000 H       1  UNL1        0.0278
     67 H           8.3082    1.2500    0.0000 H       1  UNL1        0.0278
     68 H           7.1962    0.8700    0.0000 H       1  UNL1        0.0618
     69 H           6.3301   -0.8700    0.0000 H       1  UNL1        0.0620
     70 H           6.0841    1.2500    0.0000 H       1  UNL1        0.0278
     71 H           5.4641    1.8700    0.0000 H       1  UNL1        0.0278
     72 H           4.8441    1.2500    0.0000 H       1  UNL1        0.0278
     73 H           4.5981   -0.8700    0.0000 H       1  UNL1        0.0621
     74 H           3.7320    0.8700    0.0000 H       1  UNL1        0.0649
     75 H           2.8660   -0.8700    0.0000 H       1  UNL1        0.1075
@<TRIPOS>BOND
     1     1    33    2
     2     2     3    1
     3     2     4    1
     4     2    34    1
     5     2    35    1
     6     3     5    1
     7     3    36    1
     8     3    37    1
     9     4     7    1
    10     4     8    2
    11     5     6    2
    12     5    38    1
    13     6     9    1
    14     6    10    1
    15     7    39    1
    16     7    40    1
    17     7    41    1
    18     8    11    1
    19     8    42    1
    20     9    43    1
    21     9    44    1
    22     9    45    1
    23    10    46    1
    24    10    47    1
    25    10    48    1
    26    11    12    2
    27    11    49    1
    28    12    13    1
    29    12    50    1
    30    13    14    2
    31    13    15    1
    32    14    16    1
    33    14    51    1
    34    15    52    1
    35    15    53    1
    36    15    54    1
    37    16    18    2
    38    16    55    1
    39    17    18    1
    40    17    19    2
    41    17    20    1
    42    18    56    1
    43    19    22    1
    44    19    57    1
    45    20    58    1
    46    20    59    1
    47    20    60    1
    48    21    23    2
    49    21    25    1
    50    21    26    1
    51    22    24    2
    52    22    61    1
    53    23    24    1
    54    23    62    1
    55    24    63    1
    56    25    27    2
    57    25    64    1
    58    26    65    1
    59    26    66    1
    60    26    67    1
    61    27    29    1
    62    27    68    1
    63    28    29    2
    64    28    30    1
    65    28    31    1
    66    29    69    1
    67    30    70    1
    68    30    71    1
    69    30    72    1
    70    31    32    2
    71    31    73    1
    72    32    33    1
    73    32    74    1
    74    33    75    1
