@<TRIPOS>MOLECULE
IMPHY000792
 163 171 0 0 0
SMALL
GASTEIGER

@<TRIPOS>ATOM
      1 O           6.8671   -3.5496    0.0000 O.3     1  UNL1       -0.3449
      2 O           8.6209    5.7298    0.0000 O.3     1  UNL1       -0.4318
      3 O           9.5042    4.2400    0.0000 O.2     1  UNL1       -0.2501
      4 O           5.1350   -3.5496    0.0000 O.3     1  UNL1       -0.3315
      5 O           6.8671   -5.5496    0.0000 O.3     1  UNL1       -0.3377
      6 O           9.4695    7.2398    0.0000 O.3     1  UNL1       -0.3312
      7 O           5.1350   -6.5496    0.0000 O.3     1  UNL1       -0.3864
      8 O           3.4030   -5.5496    0.0000 O.3     1  UNL1       -0.3860
      9 O          10.3644    4.7499    0.0000 O.3     1  UNL1       -0.3829
     10 O          12.0847    5.7699    0.0000 O.3     1  UNL1       -0.3864
     11 O           6.0010   -7.0496    0.0000 O.3     1  UNL1       -0.3405
     12 O          12.0616    7.7698    0.0000 O.3     1  UNL1       -0.3865
     13 O           2.5369   -4.0496    0.0000 O.3     1  UNL1       -0.4788
     14 O           3.4030   -2.5496    0.0000 O.2     1  UNL1       -0.2480
     15 O           8.5991   -6.5496    0.0000 O.3     1  UNL1       -0.3378
     16 O           9.4464    9.2396    0.0000 O.3     1  UNL1       -0.3924
     17 O           8.5991   -8.5496    0.0000 O.3     1  UNL1       -0.3864
     18 O           6.8671   -9.5496    0.0000 O.3     1  UNL1       -0.3865
     19 O           9.4651   -8.0496    0.0000 O.3     1  UNL1       -0.3431
     20 O           4.2690   -8.0496    0.0000 O.3     1  UNL1       -0.3924
     21 O          10.3312   -5.5496    0.0000 O.3     1  UNL1       -0.3841
     22 O          12.0632   -6.5496    0.0000 O.3     1  UNL1       -0.3864
     23 O          12.0632   -8.5496    0.0000 O.3     1  UNL1       -0.3866
     24 C           7.7681    1.1506    0.0000 C.3     1  UNL1       -0.0194
     25 C           6.9040    0.6473    0.0000 C.3     1  UNL1       -0.0257
     26 C           6.8920   -0.3943    0.0000 C.3     1  UNL1       -0.0250
     27 C           7.7643    2.1506    0.0000 C.3     1  UNL1       -0.0051
     28 C           7.7920   -0.9185    0.0000 C.3     1  UNL1       -0.0278
     29 C           8.6801    0.6473    0.0000 C.3     1  UNL1       -0.0463
     30 C           7.8046   -2.0035    0.0000 C.3     1  UNL1       -0.0052
     31 C           8.6921   -0.3943    0.0000 C.3     1  UNL1       -0.0486
     32 C           6.8963    2.6473    0.0000 C.2     1  UNL1       -0.0629
     33 C           6.8762    3.6887    0.0000 C.3     1  UNL1       -0.0031
     34 C           6.0361    1.1440    0.0000 C.3     1  UNL1       -0.0306
     35 C           5.9421   -0.9186    0.0000 C.3     1  UNL1       -0.0447
     36 C           8.6723    2.6610    0.0000 C.3     1  UNL1       -0.0424
     37 C           7.7722    4.2199    0.0000 C.3     1  UNL1        0.0744
     38 C           8.7522    1.3281    0.0000 C.3     1  UNL1       -0.0585
     39 C           6.8671   -2.5496    0.0000 C.3     1  UNL1        0.0672
     40 C           8.6763    3.7026    0.0000 C.3     1  UNL1       -0.0359
     41 C           6.0279    0.1091    0.0000 C.3     1  UNL1       -0.0590
     42 C           6.0322    2.1439    0.0000 C.2     1  UNL1       -0.0836
     43 C           5.9295   -2.0035    0.0000 C.3     1  UNL1       -0.0255
     44 C           8.7497    1.9808    0.0000 C.3     1  UNL1       -0.0553
     45 C           5.9223    4.2057    0.0000 C.3     1  UNL1       -0.0403
     46 C           7.7764    5.3049    0.0000 C.3     1  UNL1       -0.0362
     47 C           5.9014    5.2905    0.0000 C.3     1  UNL1       -0.0343
     48 C           8.8046   -1.9958    0.0000 C.3     1  UNL1       -0.0572
     49 C           8.3113   -2.8656    0.0000 C.3     1  UNL1       -0.0572
     50 C           6.8347    5.8438    0.0000 C.3     1  UNL1       -0.0468
     51 C           8.6324    4.7299    0.0000 C.2     1  UNL1        0.3161
     52 C           5.3881    6.1487    0.0000 C.3     1  UNL1       -0.0598
     53 C           4.9015    5.2750    0.0000 C.3     1  UNL1       -0.0598
     54 C           6.0010   -4.0496    0.0000 C.3     1  UNL1        0.1892
     55 C           6.0010   -5.0496    0.0000 C.3     1  UNL1        0.1407
     56 C           9.4810    6.2398    0.0000 C.3     1  UNL1        0.2337
     57 C           5.1350   -5.5496    0.0000 C.3     1  UNL1        0.1149
     58 C           4.2690   -4.0496    0.0000 C.3     1  UNL1        0.1859
     59 C           4.2690   -5.0496    0.0000 C.3     1  UNL1        0.1202
     60 C          10.3528    5.7499    0.0000 C.3     1  UNL1        0.1455
     61 C          11.2130    6.2599    0.0000 C.3     1  UNL1        0.1152
     62 C          10.3297    7.7497    0.0000 C.3     1  UNL1        0.1140
     63 C          11.2014    7.2598    0.0000 C.3     1  UNL1        0.1120
     64 C           6.8671   -6.5496    0.0000 C.3     1  UNL1        0.1889
     65 C           3.4030   -3.5496    0.0000 C.2     1  UNL1        0.3367
     66 C           7.7331   -7.0496    0.0000 C.3     1  UNL1        0.1406
     67 C          10.3181    8.7497    0.0000 C.3     1  UNL1        0.0731
     68 C           7.7331   -8.0496    0.0000 C.3     1  UNL1        0.1144
     69 C           6.0010   -8.0496    0.0000 C.3     1  UNL1        0.1130
     70 C           6.8671   -8.5496    0.0000 C.3     1  UNL1        0.1119
     71 C           5.1350   -8.5496    0.0000 C.3     1  UNL1        0.0730
     72 C           9.4651   -7.0496    0.0000 C.3     1  UNL1        0.1884
     73 C          10.3312   -6.5496    0.0000 C.3     1  UNL1        0.1341
     74 C          11.1972   -7.0496    0.0000 C.3     1  UNL1        0.1140
     75 C          10.3312   -8.5496    0.0000 C.3     1  UNL1        0.0873
     76 C          11.1972   -8.0496    0.0000 C.3     1  UNL1        0.1095
     77 C          10.3312   -9.5496    0.0000 C.3     1  UNL1       -0.0361
     78 H           7.4398    0.3352    0.0000 H       1  UNL1        0.0315
     79 H           8.3314   -1.2244    0.0000 H       1  UNL1        0.0312
     80 H           9.2921    0.5483    0.0000 H       1  UNL1        0.0271
     81 H           8.8824    1.2334    0.0000 H       1  UNL1        0.0271
     82 H           8.9079   -0.9755    0.0000 H       1  UNL1        0.0268
     83 H           9.3017   -0.2811    0.0000 H       1  UNL1        0.0268
     84 H           6.3466    3.3664    0.0000 H       1  UNL1        0.0357
     85 H           5.4251    1.2493    0.0000 H       1  UNL1        0.0310
     86 H           5.8263    0.5605    0.0000 H       1  UNL1        0.0310
     87 H           5.7398   -0.3325    0.0000 H       1  UNL1        0.0271
     88 H           5.3300   -1.0176    0.0000 H       1  UNL1        0.0271
     89 H           8.8791    2.0765    0.0000 H       1  UNL1        0.0274
     90 H           9.2836    2.7647    0.0000 H       1  UNL1        0.0274
     91 H           8.8623    0.7179    0.0000 H       1  UNL1        0.0235
     92 H           9.3624    1.4381    0.0000 H       1  UNL1        0.0235
     93 H           8.6422    1.9382    0.0000 H       1  UNL1        0.0235
     94 H           7.4046   -2.8586    0.0000 H       1  UNL1        0.0602
     95 H           9.2868    3.5942    0.0000 H       1  UNL1        0.0276
     96 H           8.8876    4.2855    0.0000 H       1  UNL1        0.0276
     97 H           6.3400    0.6448    0.0000 H       1  UNL1        0.0235
     98 H           5.4922    0.4211    0.0000 H       1  UNL1        0.0235
     99 H           5.7158   -0.4267    0.0000 H       1  UNL1        0.0235
    100 H           5.4941    2.4519    0.0000 H       1  UNL1        0.0572
    101 H           5.3199   -1.8903    0.0000 H       1  UNL1        0.0290
    102 H           5.7137   -2.5847    0.0000 H       1  UNL1        0.0290
    103 H           8.6444    1.3698    0.0000 H       1  UNL1        0.0238
    104 H           9.3607    1.8755    0.0000 H       1  UNL1        0.0238
    105 H           8.8550    2.5918    0.0000 H       1  UNL1        0.0238
    106 H           5.3095    4.3000    0.0000 H       1  UNL1        0.0276
    107 H           5.7246    3.6181    0.0000 H       1  UNL1        0.0276
    108 H           8.3869    5.1965    0.0000 H       1  UNL1        0.0276
    109 H           7.9877    5.8878    0.0000 H       1  UNL1        0.0276
    110 H           7.7767   -3.1798    0.0000 H       1  UNL1        0.0236
    111 H           8.6254   -3.4002    0.0000 H       1  UNL1        0.0236
    112 H           8.8458   -2.5515    0.0000 H       1  UNL1        0.0236
    113 H           8.8094   -2.6157    0.0000 H       1  UNL1        0.0236
    114 H           9.4246   -1.9910    0.0000 H       1  UNL1        0.0236
    115 H           8.7998   -1.3758    0.0000 H       1  UNL1        0.0236
    116 H           7.2302    6.3213    0.0000 H       1  UNL1        0.0271
    117 H           6.4319    6.3151    0.0000 H       1  UNL1        0.0271
    118 H           5.9202    6.4669    0.0000 H       1  UNL1        0.0235
    119 H           5.0699    6.6808    0.0000 H       1  UNL1        0.0235
    120 H           4.8560    5.8304    0.0000 H       1  UNL1        0.0235
    121 H           4.8920    5.8950    0.0000 H       1  UNL1        0.0235
    122 H           4.2816    5.2655    0.0000 H       1  UNL1        0.0235
    123 H           4.9111    4.6551    0.0000 H       1  UNL1        0.0235
    124 H           6.0010   -3.4296    0.0000 H       1  UNL1        0.0938
    125 H           6.0010   -5.6696    0.0000 H       1  UNL1        0.0675
    126 H           9.4882    5.6199    0.0000 H       1  UNL1        0.1085
    127 H           4.5981   -5.8596    0.0000 H       1  UNL1        0.0648
    128 H           4.2690   -3.4296    0.0000 H       1  UNL1        0.0741
    129 H           3.7320   -4.7396    0.0000 H       1  UNL1        0.0652
    130 H          10.8933    5.4461    0.0000 H       1  UNL1        0.0683
    131 H          11.7463    6.5760    0.0000 H       1  UNL1        0.0648
    132 H           9.7892    8.0535    0.0000 H       1  UNL1        0.0647
    133 H          11.1943    7.8798    0.0000 H       1  UNL1        0.0647
    134 H           7.4040   -6.2396    0.0000 H       1  UNL1        0.0938
    135 H           4.5981   -6.8596    0.0000 H       1  UNL1        0.2100
    136 H           3.4030   -6.1696    0.0000 H       1  UNL1        0.2100
    137 H          10.9049    4.4462    0.0000 H       1  UNL1        0.2102
    138 H           8.2700   -7.3596    0.0000 H       1  UNL1        0.0675
    139 H          10.9299    8.6491    0.0000 H       1  UNL1        0.0584
    140 H          10.5234    9.3347    0.0000 H       1  UNL1        0.0584
    141 H          12.6181    6.0861    0.0000 H       1  UNL1        0.2100
    142 H           7.7331   -8.6696    0.0000 H       1  UNL1        0.0648
    143 H          12.0544    8.3897    0.0000 H       1  UNL1        0.2100
    144 H           5.4641   -7.7396    0.0000 H       1  UNL1        0.0647
    145 H           2.0000   -3.7396    0.0000 H       1  UNL1        0.2951
    146 H           6.3301   -8.8596    0.0000 H       1  UNL1        0.0647
    147 H           9.4392    9.8596    0.0000 H       1  UNL1        0.2095
    148 H           4.7365   -9.0245    0.0000 H       1  UNL1        0.0584
    149 H           5.5335   -9.0245    0.0000 H       1  UNL1        0.0584
    150 H           9.4651   -6.4296    0.0000 H       1  UNL1        0.0938
    151 H           8.5991   -9.1696    0.0000 H       1  UNL1        0.2100
    152 H           6.3301   -9.8596    0.0000 H       1  UNL1        0.2100
    153 H          10.8681   -6.2396    0.0000 H       1  UNL1        0.0671
    154 H           3.7320   -8.3596    0.0000 H       1  UNL1        0.2095
    155 H          11.7341   -7.3596    0.0000 H       1  UNL1        0.0648
    156 H           9.7942   -8.8596    0.0000 H       1  UNL1        0.0621
    157 H          11.1972   -8.6696    0.0000 H       1  UNL1        0.0646
    158 H          10.8681   -5.2396    0.0000 H       1  UNL1        0.2101
    159 H           9.7112   -9.5496    0.0000 H       1  UNL1        0.0255
    160 H          10.3312  -10.1696    0.0000 H       1  UNL1        0.0255
    161 H          10.9512   -9.5496    0.0000 H       1  UNL1        0.0255
    162 H          12.0632   -5.9296    0.0000 H       1  UNL1        0.2100
    163 H          12.0632   -9.1696    0.0000 H       1  UNL1        0.2100
@<TRIPOS>BOND
     1     1    39    1
     2     1    54    1
     3     2    51    1
     4     2    56    1
     5     3    51    2
     6     4    54    1
     7     4    58    1
     8     5    55    1
     9     5    64    1
    10     6    56    1
    11     6    62    1
    12     7    57    1
    13     7   135    1
    14     8    59    1
    15     8   136    1
    16     9    60    1
    17     9   137    1
    18    10    61    1
    19    10   141    1
    20    11    64    1
    21    11    69    1
    22    12    63    1
    23    12   143    1
    24    13    65    1
    25    13   145    1
    26    14    65    2
    27    15    66    1
    28    15    72    1
    29    16    67    1
    30    16   147    1
    31    17    68    1
    32    17   151    1
    33    18    70    1
    34    18   152    1
    35    19    72    1
    36    19    75    1
    37    20    71    1
    38    20   154    1
    39    21    73    1
    40    21   158    1
    41    22    74    1
    42    22   162    1
    43    23    76    1
    44    23   163    1
    45    24    25    1
    46    24    27    1
    47    24    29    1
    48    24    38    1
    49    25    26    1
    50    25    34    1
    51    25    78    1
    52    26    28    1
    53    26    35    1
    54    26    41    1
    55    27    32    1
    56    27    36    1
    57    27    44    1
    58    28    30    1
    59    28    31    1
    60    28    79    1
    61    29    31    1
    62    29    80    1
    63    29    81    1
    64    30    39    1
    65    30    48    1
    66    30    49    1
    67    31    82    1
    68    31    83    1
    69    32    33    1
    70    32    42    2
    71    33    37    1
    72    33    45    1
    73    33    84    1
    74    34    42    1
    75    34    85    1
    76    34    86    1
    77    35    43    1
    78    35    87    1
    79    35    88    1
    80    36    40    1
    81    36    89    1
    82    36    90    1
    83    37    40    1
    84    37    46    1
    85    37    51    1
    86    38    91    1
    87    38    92    1
    88    38    93    1
    89    39    43    1
    90    39    94    1
    91    40    95    1
    92    40    96    1
    93    41    97    1
    94    41    98    1
    95    41    99    1
    96    42   100    1
    97    43   101    1
    98    43   102    1
    99    44   103    1
   100    44   104    1
   101    44   105    1
   102    45    47    1
   103    45   106    1
   104    45   107    1
   105    46    50    1
   106    46   108    1
   107    46   109    1
   108    47    50    1
   109    47    52    1
   110    47    53    1
   111    48   113    1
   112    48   114    1
   113    48   115    1
   114    49   110    1
   115    49   111    1
   116    49   112    1
   117    50   116    1
   118    50   117    1
   119    52   118    1
   120    52   119    1
   121    52   120    1
   122    53   121    1
   123    53   122    1
   124    53   123    1
   125    54    55    1
   126    54   124    1
   127    55    57    1
   128    55   125    1
   129    56    60    1
   130    56   126    1
   131    57    59    1
   132    57   127    1
   133    58    59    1
   134    58    65    1
   135    58   128    1
   136    59   129    1
   137    60    61    1
   138    60   130    1
   139    61    63    1
   140    61   131    1
   141    62    63    1
   142    62    67    1
   143    62   132    1
   144    63   133    1
   145    64    66    1
   146    64   134    1
   147    66    68    1
   148    66   138    1
   149    67   139    1
   150    67   140    1
   151    68    70    1
   152    68   142    1
   153    69    70    1
   154    69    71    1
   155    69   144    1
   156    70   146    1
   157    71   148    1
   158    71   149    1
   159    72    73    1
   160    72   150    1
   161    73    74    1
   162    73   153    1
   163    74    76    1
   164    74   155    1
   165    75    76    1
   166    75    77    1
   167    75   156    1
   168    76   157    1
   169    77   159    1
   170    77   160    1
   171    77   161    1
