@<TRIPOS>MOLECULE
IMPHY014680
 49 52 0 0 0
SMALL
GASTEIGER

@<TRIPOS>ATOM
      1 O           6.4552    3.2025    0.0000 O.3     1  UNL1       -0.3947
      2 O           2.0000    1.0539    0.0000 O.2     1  UNL1       -0.2905
      3 O           5.3528   -3.7022    0.0000 O.3     1  UNL1       -0.5067
      4 N           6.2862    1.7956    0.0000 N.3     1  UNL1       -0.2979
      5 N           2.7390   -0.6276    0.0000 N.ar    1  UNL1       -0.3517
      6 C           5.2304    1.9778    0.0000 C.3     1  UNL1        0.0050
      7 C           5.6131    1.0539    0.0000 C.3     1  UNL1        0.0199
      8 C           4.3066    2.3605    0.0000 C.3     1  UNL1       -0.0053
      9 C           5.2304    0.1300    0.0000 C.3     1  UNL1       -0.0090
     10 C           5.0483    3.0336    0.0000 C.2     1  UNL1       -0.0559
     11 C           6.0114    2.7588    0.0000 C.3     1  UNL1        0.0203
     12 C           3.3827    1.9778    0.0000 C.3     1  UNL1        0.0189
     13 C           6.1964    2.2366    0.0000 C.3     1  UNL1        0.0490
     14 C           4.3066   -0.2527    0.0000 C.ar    1  UNL1       -0.0100
     15 C           3.3827    0.1300    0.0000 C.ar    1  UNL1        0.0865
     16 C           3.0000    1.0539    0.0000 C.2     1  UNL1        0.1800
     17 C           7.2600    1.5681    0.0000 C.3     1  UNL1       -0.0121
     18 C           4.2260   -1.2435    0.0000 C.ar    1  UNL1        0.0070
     19 C           4.8208    4.0074    0.0000 C.2     1  UNL1       -0.0864
     20 C           3.2592   -1.4747    0.0000 C.ar    1  UNL1        0.0475
     21 C           4.9496   -1.9841    0.0000 C.ar    1  UNL1       -0.0107
     22 C           3.8637    4.2972    0.0000 C.3     1  UNL1       -0.0465
     23 C           2.9490   -2.4626    0.0000 C.ar    1  UNL1       -0.0343
     24 C           4.6623   -2.9789    0.0000 C.ar    1  UNL1        0.1176
     25 C           3.6553   -3.2198    0.0000 C.ar    1  UNL1       -0.0182
     26 H           5.2710    2.5965    0.0000 H       1  UNL1        0.0344
     27 H           6.3311    0.5989    0.0000 H       1  UNL1        0.0469
     28 H           3.9747    2.8842    0.0000 H       1  UNL1        0.0354
     29 H           5.3114   -0.4847    0.0000 H       1  UNL1        0.0329
     30 H           5.8451    0.0491    0.0000 H       1  UNL1        0.0329
     31 H           6.6288    2.8161    0.0000 H       1  UNL1        0.0473
     32 H           6.0688    3.3761    0.0000 H       1  UNL1        0.0473
     33 H           3.3018    2.5925    0.0000 H       1  UNL1        0.0351
     34 H           2.7680    2.0587    0.0000 H       1  UNL1        0.0351
     35 H           6.2504    1.6190    0.0000 H       1  UNL1        0.0560
     36 H           6.8140    2.1826    0.0000 H       1  UNL1        0.0560
     37 H           7.1190    0.9644    0.0000 H       1  UNL1        0.0391
     38 H           7.8638    1.4271    0.0000 H       1  UNL1        0.0391
     39 H           7.4011    2.1718    0.0000 H       1  UNL1        0.0391
     40 H           5.2731    4.4314    0.0000 H       1  UNL1        0.0569
     41 H           2.1209   -0.5800    0.0000 H       1  UNL1        0.1660
     42 H           7.0541    3.3630    0.0000 H       1  UNL1        0.2094
     43 H           5.5509   -1.8329    0.0000 H       1  UNL1        0.0661
     44 H           4.0434    4.8906    0.0000 H       1  UNL1        0.0272
     45 H           3.2703    4.4770    0.0000 H       1  UNL1        0.0272
     46 H           3.6840    3.7038    0.0000 H       1  UNL1        0.0272
     47 H           2.3444   -2.5998    0.0000 H       1  UNL1        0.0639
     48 H           3.4764   -3.8134    0.0000 H       1  UNL1        0.0655
     49 H           5.1785   -4.2972    0.0000 H       1  UNL1        0.2921
@<TRIPOS>BOND
     1     1    13    1
     2     1    42    1
     3     2    16    2
     4     3    24    1
     5     3    49    1
     6     4     7    1
     7     4    11    1
     8     4    17    1
     9     5    15   ar
    10     5    20   ar
    11     5    41    1
    12     6     7    1
    13     6     8    1
    14     6    13    1
    15     6    26    1
    16     7     9    1
    17     7    27    1
    18     8    10    1
    19     8    12    1
    20     8    28    1
    21     9    14    1
    22     9    29    1
    23     9    30    1
    24    10    11    1
    25    10    19    2
    26    11    31    1
    27    11    32    1
    28    12    16    1
    29    12    33    1
    30    12    34    1
    31    13    35    1
    32    13    36    1
    33    14    15   ar
    34    14    18   ar
    35    15    16    1
    36    17    37    1
    37    17    38    1
    38    17    39    1
    39    18    20   ar
    40    18    21   ar
    41    19    22    1
    42    19    40    1
    43    20    23   ar
    44    21    24   ar
    45    21    43    1
    46    22    44    1
    47    22    45    1
    48    22    46    1
    49    23    25   ar
    50    23    47    1
    51    24    25   ar
    52    25    48    1
