@<TRIPOS>MOLECULE
IMPHY007837
 38 39 0 0 0
SMALL
GASTEIGER

@<TRIPOS>ATOM
      1 O           5.3781   -1.5795    0.0000 O.3     1  UNL1       -0.3653
      2 O           2.3090   -2.2518    0.0000 O.2     1  UNL1       -0.4707
      3 O           6.6030    0.9646    0.0000 O.2     1  UNL1       -0.2926
      4 C           6.1871   -0.9917    0.0000 C.3     1  UNL1        0.0746
      5 C           5.8781   -0.0406    0.0000 C.3     1  UNL1       -0.0209
      6 C           4.8781   -0.0406    0.0000 C.3     1  UNL1       -0.0197
      7 C           4.5691   -0.9917    0.0000 C.3     1  UNL1        0.0873
      8 C           7.1382   -0.6827    0.0000 C.3     1  UNL1        0.0387
      9 C           6.7749   -1.8007    0.0000 C.3     1  UNL1       -0.0354
     10 C           3.6180   -1.3007    0.0000 C.ar    1  UNL1        0.0188
     11 C           7.3461    0.2955    0.0000 C.2     1  UNL1        0.1587
     12 C           2.8090   -0.7129    0.0000 C.ar    1  UNL1       -0.0183
     13 C           3.3090   -2.2518    0.0000 C.ar    1  UNL1        0.0973
     14 C           8.2972    0.6045    0.0000 C.2     1  UNL1       -0.0204
     15 C           2.0000   -1.3007    0.0000 C.ar    1  UNL1        0.0920
     16 C           8.5051    1.5826    0.0000 C.2     1  UNL1       -0.0724
     17 C           9.4561    1.8916    0.0000 C.3     1  UNL1       -0.0437
     18 C           7.7619    2.2518    0.0000 C.3     1  UNL1       -0.0437
     19 H           6.4846    0.0883    0.0000 H       1  UNL1        0.0294
     20 H           5.8133    0.5760    0.0000 H       1  UNL1        0.0294
     21 H           4.9429    0.5760    0.0000 H       1  UNL1        0.0294
     22 H           4.2717    0.0883    0.0000 H       1  UNL1        0.0294
     23 H           4.4721   -1.6041    0.0000 H       1  UNL1        0.0647
     24 H           7.2245   -1.2966    0.0000 H       1  UNL1        0.0373
     25 H           7.7578   -0.7043    0.0000 H       1  UNL1        0.0373
     26 H           6.2733   -2.1651    0.0000 H       1  UNL1        0.0257
     27 H           7.1393   -2.3023    0.0000 H       1  UNL1        0.0257
     28 H           7.2765   -1.4363    0.0000 H       1  UNL1        0.0257
     29 H           2.8090   -0.0929    0.0000 H       1  UNL1        0.0652
     30 H           3.6734   -2.7534    0.0000 H       1  UNL1        0.1033
     31 H           8.7579    0.1896    0.0000 H       1  UNL1        0.0652
     32 H           1.4103   -1.1091    0.0000 H       1  UNL1        0.1029
     33 H           8.1768    2.7125    0.0000 H       1  UNL1        0.0274
     34 H           9.6477    1.3020    0.0000 H       1  UNL1        0.0274
     35 H          10.0458    2.0832    0.0000 H       1  UNL1        0.0274
     36 H           9.2645    2.4813    0.0000 H       1  UNL1        0.0274
     37 H           7.3012    2.6666    0.0000 H       1  UNL1        0.0274
     38 H           7.3471    1.7910    0.0000 H       1  UNL1        0.0274
@<TRIPOS>BOND
     1     1     4    1
     2     1     7    1
     3     2    13   ar
     4     2    15   ar
     5     3    11    2
     6     4     5    1
     7     4     8    1
     8     4     9    1
     9     5     6    1
    10     5    19    1
    11     5    20    1
    12     6     7    1
    13     6    21    1
    14     6    22    1
    15     7    10    1
    16     7    23    1
    17     8    11    1
    18     8    24    1
    19     8    25    1
    20     9    26    1
    21     9    27    1
    22     9    28    1
    23    10    12   ar
    24    10    13   ar
    25    11    14    1
    26    12    15   ar
    27    12    29    1
    28    13    30    1
    29    14    16    2
    30    14    31    1
    31    15    32    1
    32    16    17    1
    33    16    18    1
    34    17    34    1
    35    17    35    1
    36    17    36    1
    37    18    33    1
    38    18    37    1
    39    18    38    1
