@<TRIPOS>MOLECULE
IMPHY000364
 57 60 0 0 0
SMALL
GASTEIGER

@<TRIPOS>ATOM
      1 O           5.1350   -2.8813    0.0000 O.3     1  UNL1       -0.3313
      2 O           6.8671   -2.8813    0.0000 O.3     1  UNL1       -0.4570
      3 O           5.1350   -5.8813    0.0000 O.3     1  UNL1       -0.3864
      4 O           3.4030   -4.8813    0.0000 O.3     1  UNL1       -0.3865
      5 O           6.8671   -4.8813    0.0000 O.3     1  UNL1       -0.3829
      6 O           2.5369   -3.3813    0.0000 O.3     1  UNL1       -0.3924
      7 O           8.6431    0.1256    0.0000 O.2     1  UNL1       -0.4620
      8 O           5.1350   -1.8813    0.0000 O.3     1  UNL1       -0.4914
      9 O           5.9793    1.6502    0.0000 O.2     1  UNL1       -0.2864
     10 O           7.7336    5.6880    0.0000 O.3     1  UNL1       -0.4951
     11 C           5.1350   -4.8813    0.0000 C.3     1  UNL1        0.1152
     12 C           4.2690   -4.3813    0.0000 C.3     1  UNL1        0.1120
     13 C           6.0010   -4.3813    0.0000 C.3     1  UNL1        0.1454
     14 C           4.2690   -3.3813    0.0000 C.3     1  UNL1        0.1140
     15 C           6.0010   -3.3813    0.0000 C.3     1  UNL1        0.2310
     16 C           3.4030   -2.8813    0.0000 C.3     1  UNL1        0.0731
     17 C           6.8671   -1.8813    0.0000 C.ar    1  UNL1        0.1689
     18 C           6.0010   -1.3813    0.0000 C.ar    1  UNL1        0.1625
     19 C           7.7331   -1.3813    0.0000 C.ar    1  UNL1        0.0268
     20 C           7.7331   -0.3813    0.0000 C.ar    1  UNL1        0.1421
     21 C           6.8671    0.1187    0.0000 C.ar    1  UNL1        0.0682
     22 C           6.0010   -0.3813    0.0000 C.ar    1  UNL1       -0.0019
     23 C           6.8510    1.1602    0.0000 C.ar    1  UNL1        0.2003
     24 C           7.7490    1.6880    0.0000 C.ar    1  UNL1        0.0643
     25 C           8.6511    1.1672    0.0000 C.ar    1  UNL1        0.1038
     26 C           7.7452    2.6880    0.0000 C.ar    1  UNL1       -0.0110
     27 C           4.2690   -1.3813    0.0000 C.3     1  UNL1        0.0790
     28 C           8.6093    3.1913    0.0000 C.ar    1  UNL1       -0.0504
     29 C           6.8772    3.1846    0.0000 C.ar    1  UNL1       -0.0504
     30 C           8.6054    4.1913    0.0000 C.ar    1  UNL1       -0.0194
     31 C           6.8734    4.1846    0.0000 C.ar    1  UNL1       -0.0194
     32 C           7.7375    4.6880    0.0000 C.ar    1  UNL1        0.1201
     33 C           8.5977    6.1913    0.0000 C.3     1  UNL1        0.0788
     34 H           5.6720   -5.1913    0.0000 H       1  UNL1        0.0648
     35 H           4.2690   -5.0013    0.0000 H       1  UNL1        0.0647
     36 H           6.5380   -4.0713    0.0000 H       1  UNL1        0.0683
     37 H           4.2690   -2.7613    0.0000 H       1  UNL1        0.0647
     38 H           6.0010   -2.7613    0.0000 H       1  UNL1        0.1084
     39 H           3.8015   -2.4063    0.0000 H       1  UNL1        0.0584
     40 H           3.0044   -2.4063    0.0000 H       1  UNL1        0.0584
     41 H           4.5981   -6.1913    0.0000 H       1  UNL1        0.2100
     42 H           3.4030   -5.5013    0.0000 H       1  UNL1        0.2100
     43 H           6.8671   -5.5013    0.0000 H       1  UNL1        0.2102
     44 H           2.0000   -3.0713    0.0000 H       1  UNL1        0.2095
     45 H           8.2700   -1.6913    0.0000 H       1  UNL1        0.0692
     46 H           5.4641   -0.0713    0.0000 H       1  UNL1        0.0663
     47 H           9.1892    1.4751    0.0000 H       1  UNL1        0.1037
     48 H           4.5790   -0.8443    0.0000 H       1  UNL1        0.0660
     49 H           3.7320   -1.0713    0.0000 H       1  UNL1        0.0660
     50 H           3.9590   -1.9182    0.0000 H       1  UNL1        0.0660
     51 H           9.1474    2.8834    0.0000 H       1  UNL1        0.0625
     52 H           6.3415    2.8726    0.0000 H       1  UNL1        0.0625
     53 H           9.1412    4.5034    0.0000 H       1  UNL1        0.0654
     54 H           6.3353    4.4925    0.0000 H       1  UNL1        0.0654
     55 H           8.9098    5.6556    0.0000 H       1  UNL1        0.0660
     56 H           9.1334    6.5034    0.0000 H       1  UNL1        0.0660
     57 H           8.2856    6.7270    0.0000 H       1  UNL1        0.0660
@<TRIPOS>BOND
     1     1    14    1
     2     1    15    1
     3    15     2    1
     4     2    17    1
     5    11     3    1
     6     3    41    1
     7    12     4    1
     8     4    42    1
     9    13     5    1
    10     5    43    1
    11     6    16    1
    12     6    44    1
    13     7    20   ar
    14     7    25   ar
    15     8    18    1
    16     8    27    1
    17     9    23    2
    18    10    32    1
    19    10    33    1
    20    11    12    1
    21    11    13    1
    22    11    34    1
    23    12    14    1
    24    12    35    1
    25    13    15    1
    26    13    36    1
    27    14    16    1
    28    14    37    1
    29    15    38    1
    30    16    39    1
    31    16    40    1
    32    17    18   ar
    33    17    19   ar
    34    18    22   ar
    35    19    20   ar
    36    19    45    1
    37    20    21   ar
    38    21    22   ar
    39    21    23   ar
    40    22    46    1
    41    23    24   ar
    42    24    25   ar
    43    24    26    1
    44    25    47    1
    45    26    28   ar
    46    26    29   ar
    47    27    48    1
    48    27    49    1
    49    27    50    1
    50    28    30   ar
    51    28    51    1
    52    29    31   ar
    53    29    52    1
    54    30    32   ar
    55    30    53    1
    56    31    32   ar
    57    31    54    1
    58    33    55    1
    59    33    56    1
    60    33    57    1
