@<TRIPOS>MOLECULE
IMPHY005765
 95 97 0 0 0
SMALL
GASTEIGER

@<TRIPOS>ATOM
      1 O           9.2576   -1.4981    0.0000 O.3     1  UNL1       -0.5060
      2 O          10.9897    1.5019    0.0000 O.3     1  UNL1       -0.5055
      3 O           7.5256    1.5019    0.0000 O.3     1  UNL1       -0.5055
      4 O          10.1236    3.0019    0.0000 O.2     1  UNL1       -0.2915
      5 O           5.5559   -0.1507    0.0000 O.3     1  UNL1       -0.5055
      6 O          11.6737   -2.3774    0.0000 O.3     1  UNL1       -0.5055
      7 O           8.2096   -2.3774    0.0000 O.3     1  UNL1       -0.5060
      8 O          12.2752    1.0340    0.0000 O.3     1  UNL1       -0.5060
      9 O           4.9545   -3.5623    0.0000 O.3     1  UNL1       -0.4939
     10 O          14.9289   -1.1927    0.0000 O.3     1  UNL1       -0.4939
     11 O           3.9283   -0.7432    0.0000 O.2     1  UNL1       -0.2918
     12 O          13.0005   -3.4908    0.0000 O.2     1  UNL1       -0.2918
     13 C           8.3916    0.0019    0.0000 C.ar    1  UNL1        0.0411
     14 C          10.1236    0.0019    0.0000 C.ar    1  UNL1        0.0411
     15 C           9.2576    1.5019    0.0000 C.ar    1  UNL1        0.1011
     16 C           7.5256   -0.4981    0.0000 C.3     1  UNL1        0.0115
     17 C          10.9897   -0.4981    0.0000 C.3     1  UNL1        0.0115
     18 C           9.2576   -0.4981    0.0000 C.ar    1  UNL1        0.1308
     19 C           8.3916    3.0019    0.0000 C.3     1  UNL1        0.0193
     20 C          10.1236    1.0019    0.0000 C.ar    1  UNL1        0.1378
     21 C           8.3916    1.0019    0.0000 C.ar    1  UNL1        0.1378
     22 C           6.8828   -1.2642    0.0000 C.ar    1  UNL1        0.0411
     23 C          11.9745   -0.6717    0.0000 C.ar    1  UNL1        0.0411
     24 C           9.2576    2.5019    0.0000 C.2     1  UNL1        0.1730
     25 C           8.3916    4.0019    0.0000 C.3     1  UNL1       -0.0463
     26 C           5.8980   -1.0905    0.0000 C.ar    1  UNL1        0.1378
     27 C          12.3165   -1.6114    0.0000 C.ar    1  UNL1        0.1378
     28 C           7.2248   -2.2038    0.0000 C.ar    1  UNL1        0.1302
     29 C          12.6173    0.0943    0.0000 C.ar    1  UNL1        0.1302
     30 C           5.2552   -1.8566    0.0000 C.ar    1  UNL1        0.1010
     31 C          13.3013   -1.7850    0.0000 C.ar    1  UNL1        0.1010
     32 C           7.5256    2.5019    0.0000 C.3     1  UNL1       -0.0554
     33 C           6.5820   -2.9698    0.0000 C.ar    1  UNL1        0.0337
     34 C          13.6021   -0.0793    0.0000 C.ar    1  UNL1        0.0337
     35 C           5.5973   -2.7963    0.0000 C.ar    1  UNL1        0.1404
     36 C          13.9441   -1.0190    0.0000 C.ar    1  UNL1        0.1404
     37 C           7.5256    4.5019    0.0000 C.3     1  UNL1       -0.0646
     38 C           4.2704   -1.6829    0.0000 C.2     1  UNL1        0.1702
     39 C          13.6433   -2.7247    0.0000 C.2     1  UNL1        0.1702
     40 C           6.9240   -3.9095    0.0000 C.3     1  UNL1       -0.0327
     41 C          14.2448    0.6867    0.0000 C.3     1  UNL1       -0.0327
     42 C           3.6276   -2.4490    0.0000 C.3     1  UNL1        0.0105
     43 C          14.6281   -2.8984    0.0000 C.3     1  UNL1        0.0105
     44 C           2.6428   -2.2753    0.0000 C.3     1  UNL1       -0.0489
     45 C          14.9701   -3.8381    0.0000 C.3     1  UNL1       -0.0489
     46 C           2.0000   -3.0413    0.0000 C.3     1  UNL1       -0.0649
     47 C          15.9549   -4.0117    0.0000 C.3     1  UNL1       -0.0649
     48 C           5.2964   -4.5019    0.0000 C.3     1  UNL1        0.0788
     49 C          15.5717   -0.4266    0.0000 C.3     1  UNL1        0.0788
     50 H           7.4536    0.1177    0.0000 H       1  UNL1        0.0366
     51 H           7.9241   -0.9730    0.0000 H       1  UNL1        0.0366
     52 H          10.4923   -0.8683    0.0000 H       1  UNL1        0.0366
     53 H          11.2017    0.0845    0.0000 H       1  UNL1        0.0366
     54 H           8.3916    2.3819    0.0000 H       1  UNL1        0.0378
     55 H           9.0022    3.8943    0.0000 H       1  UNL1        0.0269
     56 H           8.6036    4.5845    0.0000 H       1  UNL1        0.0269
     57 H           7.2156    3.0389    0.0000 H       1  UNL1        0.0237
     58 H           6.9886    2.1919    0.0000 H       1  UNL1        0.0237
     59 H           7.8356    1.9650    0.0000 H       1  UNL1        0.0237
     60 H           7.8356    5.0389    0.0000 H       1  UNL1        0.0230
     61 H           6.9886    4.8119    0.0000 H       1  UNL1        0.0230
     62 H           7.2156    3.9650    0.0000 H       1  UNL1        0.0230
     63 H           8.7207   -1.8081    0.0000 H       1  UNL1        0.2922
     64 H          11.5266    1.1919    0.0000 H       1  UNL1        0.2922
     65 H           6.9886    1.1919    0.0000 H       1  UNL1        0.2922
     66 H           6.3414   -4.1216    0.0000 H       1  UNL1        0.0280
     67 H           7.1361   -4.4922    0.0000 H       1  UNL1        0.0280
     68 H           7.5066   -3.6975    0.0000 H       1  UNL1        0.0280
     69 H          14.7198    0.2882    0.0000 H       1  UNL1        0.0280
     70 H          14.6434    1.1617    0.0000 H       1  UNL1        0.0280
     71 H          13.7699    1.0853    0.0000 H       1  UNL1        0.0280
     72 H           3.4156   -3.0316    0.0000 H       1  UNL1        0.0345
     73 H           4.1645   -2.7589    0.0000 H       1  UNL1        0.0345
     74 H          15.2387   -2.7907    0.0000 H       1  UNL1        0.0345
     75 H          14.6281   -2.2784    0.0000 H       1  UNL1        0.0345
     76 H           2.8548   -1.6927    0.0000 H       1  UNL1        0.0267
     77 H           2.1058   -1.9653    0.0000 H       1  UNL1        0.0267
     78 H          14.3596   -3.9458    0.0000 H       1  UNL1        0.0267
     79 H          14.9701   -4.4581    0.0000 H       1  UNL1        0.0267
     80 H           5.9545    0.3242    0.0000 H       1  UNL1        0.2922
     81 H          11.8857   -2.9601    0.0000 H       1  UNL1        0.2922
     82 H           8.4216   -2.9601    0.0000 H       1  UNL1        0.2922
     83 H          12.6738    1.5090    0.0000 H       1  UNL1        0.2922
     84 H           1.5250   -2.6428    0.0000 H       1  UNL1        0.0230
     85 H           1.6015   -3.5163    0.0000 H       1  UNL1        0.0230
     86 H           2.4750   -3.4399    0.0000 H       1  UNL1        0.0230
     87 H          15.8473   -4.6223    0.0000 H       1  UNL1        0.0230
     88 H          16.5655   -4.1194    0.0000 H       1  UNL1        0.0230
     89 H          16.0626   -3.4012    0.0000 H       1  UNL1        0.0230
     90 H           4.7138   -4.7140    0.0000 H       1  UNL1        0.0660
     91 H           5.5084   -5.0846    0.0000 H       1  UNL1        0.0660
     92 H           5.8790   -4.2899    0.0000 H       1  UNL1        0.0660
     93 H          16.0466   -0.8251    0.0000 H       1  UNL1        0.0660
     94 H          15.9702    0.0483    0.0000 H       1  UNL1        0.0660
     95 H          15.0967   -0.0281    0.0000 H       1  UNL1        0.0660
@<TRIPOS>BOND
     1     1    18    1
     2     1    63    1
     3     2    20    1
     4     2    64    1
     5     3    21    1
     6     3    65    1
     7     4    24    2
     8     5    26    1
     9     5    80    1
    10     6    27    1
    11     6    81    1
    12     7    28    1
    13     7    82    1
    14     8    29    1
    15     8    83    1
    16     9    35    1
    17     9    48    1
    18    10    36    1
    19    10    49    1
    20    11    38    2
    21    12    39    2
    22    13    16    1
    23    13    18   ar
    24    13    21   ar
    25    14    17    1
    26    14    18   ar
    27    14    20   ar
    28    15    20   ar
    29    15    21   ar
    30    15    24    1
    31    16    22    1
    32    16    50    1
    33    16    51    1
    34    17    23    1
    35    17    52    1
    36    17    53    1
    37    19    24    1
    38    19    25    1
    39    19    32    1
    40    19    54    1
    41    22    26   ar
    42    22    28   ar
    43    23    27   ar
    44    23    29   ar
    45    25    37    1
    46    25    55    1
    47    25    56    1
    48    26    30   ar
    49    27    31   ar
    50    28    33   ar
    51    29    34   ar
    52    30    35   ar
    53    30    38    1
    54    31    36   ar
    55    31    39    1
    56    32    57    1
    57    32    58    1
    58    32    59    1
    59    33    35   ar
    60    33    40    1
    61    34    36   ar
    62    34    41    1
    63    37    60    1
    64    37    61    1
    65    37    62    1
    66    38    42    1
    67    39    43    1
    68    40    66    1
    69    40    67    1
    70    40    68    1
    71    41    69    1
    72    41    70    1
    73    41    71    1
    74    42    44    1
    75    42    72    1
    76    42    73    1
    77    43    45    1
    78    43    74    1
    79    43    75    1
    80    44    46    1
    81    44    76    1
    82    44    77    1
    83    45    47    1
    84    45    78    1
    85    45    79    1
    86    46    84    1
    87    46    85    1
    88    46    86    1
    89    47    87    1
    90    47    88    1
    91    47    89    1
    92    48    90    1
    93    48    91    1
    94    48    92    1
    95    49    93    1
    96    49    94    1
    97    49    95    1
