@<TRIPOS>MOLECULE
IMPHY013070
 68 71 0 0 0
SMALL
GASTEIGER

@<TRIPOS>ATOM
      1 O           6.8671   -2.1550    0.0000 O.3     1  UNL1       -0.3343
      2 O           6.0010    1.3450    0.0000 O.3     1  UNL1       -0.3092
      3 O           5.1350   -0.1550    0.0000 O.2     1  UNL1       -0.4705
      4 O           5.1350   -2.1550    0.0000 O.3     1  UNL1       -0.3405
      5 O           8.1240   -2.4102    0.0000 O.3     1  UNL1       -0.3845
      6 O           5.1350    2.8450    0.0000 O.3     1  UNL1       -0.3404
      7 O           6.8671   -4.1550    0.0000 O.3     1  UNL1       -0.3841
      8 O           5.1350   -5.1550    0.0000 O.3     1  UNL1       -0.3864
      9 O           9.1024    1.3065    0.0000 O.3     1  UNL1       -0.3907
     10 O           3.4030   -4.1550    0.0000 O.3     1  UNL1       -0.3865
     11 O           4.2690    0.3450    0.0000 O.3     1  UNL1       -0.3841
     12 O           2.5369    1.3450    0.0000 O.3     1  UNL1       -0.3864
     13 O           2.5369    3.3450    0.0000 O.3     1  UNL1       -0.3865
     14 O           2.5369   -2.6550    0.0000 O.3     1  UNL1       -0.3924
     15 O           5.1350    4.8450    0.0000 O.3     1  UNL1       -0.3924
     16 C           6.8671   -1.1550    0.0000 C.3     1  UNL1        0.1352
     17 C           6.8671   -0.1550    0.0000 C.3     1  UNL1        0.0804
     18 C           7.8133   -1.4597    0.0000 C.3     1  UNL1        0.1071
     19 C           6.0010    0.3450    0.0000 C.3     1  UNL1        0.2130
     20 C           7.8133    0.1497    0.0000 C.2     1  UNL1       -0.0338
     21 C           8.3969   -0.6550    0.0000 C.2     1  UNL1       -0.0509
     22 C           6.0010   -1.6550    0.0000 C.2     1  UNL1       -0.0145
     23 C           6.0010   -2.6550    0.0000 C.3     1  UNL1        0.1891
     24 C           6.0010   -3.6550    0.0000 C.3     1  UNL1        0.1341
     25 C           5.1350    1.8450    0.0000 C.3     1  UNL1        0.1918
     26 C           5.1350   -4.1550    0.0000 C.3     1  UNL1        0.1141
     27 C           8.1240    1.1002    0.0000 C.3     1  UNL1        0.0659
     28 C           4.2690   -3.6550    0.0000 C.3     1  UNL1        0.1119
     29 C           5.1350   -1.1550    0.0000 C.2     1  UNL1        0.0868
     30 C           4.2690   -2.6550    0.0000 C.3     1  UNL1        0.1130
     31 C           4.2690    1.3450    0.0000 C.3     1  UNL1        0.1342
     32 C           3.4030    1.8450    0.0000 C.3     1  UNL1        0.1141
     33 C           3.4030    2.8450    0.0000 C.3     1  UNL1        0.1119
     34 C           4.2690    3.3450    0.0000 C.3     1  UNL1        0.1130
     35 C           3.4030   -2.1550    0.0000 C.3     1  UNL1        0.0730
     36 C           4.2690    4.3450    0.0000 C.3     1  UNL1        0.0730
     37 H           6.9570    0.6902    0.0000 H       1  UNL1        0.0440
     38 H           7.3758   -1.8991    0.0000 H       1  UNL1        0.0670
     39 H           6.5380    0.6550    0.0000 H       1  UNL1        0.1063
     40 H           9.0169   -0.6550    0.0000 H       1  UNL1        0.0599
     41 H           6.0010   -2.2750    0.0000 H       1  UNL1        0.0632
     42 H           6.0010   -2.0350    0.0000 H       1  UNL1        0.0938
     43 H           6.5380   -3.3450    0.0000 H       1  UNL1        0.0671
     44 H           5.1350    1.2250    0.0000 H       1  UNL1        0.0939
     45 H           5.6720   -4.4650    0.0000 H       1  UNL1        0.0648
     46 H           8.1034    1.7199    0.0000 H       1  UNL1        0.0604
     47 H           7.5101    1.1876    0.0000 H       1  UNL1        0.0604
     48 H           3.7320   -3.3450    0.0000 H       1  UNL1        0.0647
     49 H           4.5981   -1.4650    0.0000 H       1  UNL1        0.1022
     50 H           4.2690   -2.0350    0.0000 H       1  UNL1        0.0647
     51 H           3.7320    1.0350    0.0000 H       1  UNL1        0.0671
     52 H           2.8660    2.1550    0.0000 H       1  UNL1        0.0648
     53 H           3.4030    3.4650    0.0000 H       1  UNL1        0.0647
     54 H           7.7099   -2.8717    0.0000 H       1  UNL1        0.2103
     55 H           4.8059    3.6550    0.0000 H       1  UNL1        0.0647
     56 H           3.8015   -1.6800    0.0000 H       1  UNL1        0.0584
     57 H           3.0044   -1.6800    0.0000 H       1  UNL1        0.0584
     58 H           6.8671   -4.7750    0.0000 H       1  UNL1        0.2101
     59 H           4.0569    4.9276    0.0000 H       1  UNL1        0.0584
     60 H           3.6584    4.2373    0.0000 H       1  UNL1        0.0584
     61 H           4.5981   -5.4650    0.0000 H       1  UNL1        0.2100
     62 H           9.2951    1.8958    0.0000 H       1  UNL1        0.2098
     63 H           3.4030   -4.7750    0.0000 H       1  UNL1        0.2100
     64 H           3.7320    0.0350    0.0000 H       1  UNL1        0.2101
     65 H           2.0000    1.6550    0.0000 H       1  UNL1        0.2100
     66 H           2.5369    3.9650    0.0000 H       1  UNL1        0.2100
     67 H           2.0000   -2.3450    0.0000 H       1  UNL1        0.2095
     68 H           5.1350    5.4650    0.0000 H       1  UNL1        0.2095
@<TRIPOS>BOND
     1    16     1    1
     2    23     1    1
     3    19     2    1
     4    25     2    1
     5     3    19    1
     6     3    29    1
     7     4    23    1
     8     4    30    1
     9    18     5    1
    10     5    54    1
    11     6    25    1
    12     6    34    1
    13    24     7    1
    14     7    58    1
    15    26     8    1
    16     8    61    1
    17     9    27    1
    18     9    62    1
    19    28    10    1
    20    10    63    1
    21    31    11    1
    22    11    64    1
    23    32    12    1
    24    12    65    1
    25    33    13    1
    26    13    66    1
    27    14    35    1
    28    14    67    1
    29    15    36    1
    30    15    68    1
    31    16    17    1
    32    16    18    1
    33    16    22    1
    34    17    19    1
    35    17    20    1
    36    17    37    1
    37    18    21    1
    38    18    38    1
    39    19    39    1
    40    20    21    2
    41    20    27    1
    42    21    40    1
    43    22    29    2
    44    22    41    1
    45    23    24    1
    46    23    42    1
    47    24    26    1
    48    24    43    1
    49    25    31    1
    50    25    44    1
    51    26    28    1
    52    26    45    1
    53    27    46    1
    54    27    47    1
    55    28    30    1
    56    28    48    1
    57    29    49    1
    58    30    35    1
    59    30    50    1
    60    31    32    1
    61    31    51    1
    62    32    33    1
    63    32    52    1
    64    33    34    1
    65    33    53    1
    66    34    36    1
    67    34    55    1
    68    35    56    1
    69    35    57    1
    70    36    59    1
    71    36    60    1
