@<TRIPOS>MOLECULE
IMPHY009901
 38 39 0 0 0
SMALL
GASTEIGER

@<TRIPOS>ATOM
      1 O           2.0850   -2.7094    0.0000 O.3     1  UNL1       -0.3904
      2 C           2.9511    1.7906    0.0000 C.3     1  UNL1       -0.0019
      3 C           3.9511    1.7906    0.0000 C.3     1  UNL1       -0.0255
      4 C           2.6420    2.7416    0.0000 C.3     1  UNL1       -0.0431
      5 C           4.2601    2.7416    0.0000 C.3     1  UNL1       -0.0470
      6 C           3.4511    3.3294    0.0000 C.3     1  UNL1       -0.0517
      7 C           2.9511    0.7906    0.0000 C.ar    1  UNL1       -0.0409
      8 C           2.0000    1.4816    0.0000 C.3     1  UNL1       -0.0550
      9 C           4.9021    1.4816    0.0000 C.3     1  UNL1       -0.0590
     10 C           4.4511    0.9246    0.0000 C.3     1  UNL1       -0.0590
     11 C           3.8171    0.2906    0.0000 C.ar    1  UNL1       -0.0577
     12 C           2.0850    0.2906    0.0000 C.ar    1  UNL1       -0.0577
     13 C           3.8171   -0.7094    0.0000 C.ar    1  UNL1       -0.0561
     14 C           2.0850   -0.7094    0.0000 C.ar    1  UNL1       -0.0561
     15 C           2.9511   -1.2094    0.0000 C.ar    1  UNL1       -0.0222
     16 C           2.9511   -2.2094    0.0000 C.3     1  UNL1        0.0692
     17 H           2.3320    3.2786    0.0000 H       1  UNL1        0.0274
     18 H           2.0756    2.4895    0.0000 H       1  UNL1        0.0274
     19 H           4.8265    2.4895    0.0000 H       1  UNL1        0.0271
     20 H           4.5701    3.2786    0.0000 H       1  UNL1        0.0271
     21 H           3.8659    3.7902    0.0000 H       1  UNL1        0.0266
     22 H           3.0362    3.7902    0.0000 H       1  UNL1        0.0266
     23 H           1.8084    2.0712    0.0000 H       1  UNL1        0.0238
     24 H           1.4103    1.2900    0.0000 H       1  UNL1        0.0238
     25 H           2.1916    0.8919    0.0000 H       1  UNL1        0.0238
     26 H           4.7105    0.8919    0.0000 H       1  UNL1        0.0235
     27 H           5.4918    1.2900    0.0000 H       1  UNL1        0.0235
     28 H           5.0937    2.0712    0.0000 H       1  UNL1        0.0235
     29 H           3.9142    0.6146    0.0000 H       1  UNL1        0.0235
     30 H           4.7612    0.3877    0.0000 H       1  UNL1        0.0235
     31 H           4.9880    1.2347    0.0000 H       1  UNL1        0.0235
     32 H           4.3540    0.6006    0.0000 H       1  UNL1        0.0621
     33 H           1.5481    0.6006    0.0000 H       1  UNL1        0.0621
     34 H           4.3540   -1.0194    0.0000 H       1  UNL1        0.0621
     35 H           1.5481   -1.0194    0.0000 H       1  UNL1        0.0621
     36 H           3.1631   -2.7920    0.0000 H       1  UNL1        0.0607
     37 H           3.5616   -2.1018    0.0000 H       1  UNL1        0.0607
     38 H           2.0850   -3.3294    0.0000 H       1  UNL1        0.2098
@<TRIPOS>BOND
     1     1    16    1
     2     1    38    1
     3     2     3    1
     4     2     4    1
     5     2     7    1
     6     2     8    1
     7     3     5    1
     8     3     9    1
     9     3    10    1
    10     4     6    1
    11     4    17    1
    12     4    18    1
    13     5     6    1
    14     5    19    1
    15     5    20    1
    16     6    21    1
    17     6    22    1
    18     7    11   ar
    19     7    12   ar
    20     8    23    1
    21     8    24    1
    22     8    25    1
    23     9    26    1
    24     9    27    1
    25     9    28    1
    26    10    29    1
    27    10    30    1
    28    10    31    1
    29    11    13   ar
    30    11    32    1
    31    12    14   ar
    32    12    33    1
    33    13    15   ar
    34    13    34    1
    35    14    15   ar
    36    14    35    1
    37    15    16    1
    38    16    36    1
    39    16    37    1
