@<TRIPOS>MOLECULE
IMPHY004760
 31 33 0 0 0
SMALL
GASTEIGER

@<TRIPOS>ATOM
      1 O           5.3923   -1.6692    0.0000 O.3     1  UNL1       -0.4929
      2 N           4.5274    1.6018    0.0000 N.ar    1  UNL1       -0.3526
      3 N           7.0547    0.4776    0.0000 N.ar    1  UNL1       -0.2542
      4 C           5.0274    0.0630    0.0000 C.ar    1  UNL1        0.0523
      5 C           5.3364    1.0140    0.0000 C.ar    1  UNL1        0.0726
      6 C           4.0274    0.0630    0.0000 C.ar    1  UNL1        0.0110
      7 C           3.7183    1.0140    0.0000 C.ar    1  UNL1        0.0476
      8 C           6.3518    1.2463    0.0000 C.ar    1  UNL1        0.0651
      9 C           5.7123   -0.7218    0.0000 C.ar    1  UNL1        0.1478
     10 C           6.6498    2.2008    0.0000 C.3     1  UNL1       -0.0112
     11 C           3.3424   -0.7218    0.0000 C.ar    1  UNL1       -0.0519
     12 C           2.7029    1.2463    0.0000 C.ar    1  UNL1       -0.0378
     13 C           6.7328   -0.5131    0.0000 C.ar    1  UNL1        0.0702
     14 C           2.3219   -0.5131    0.0000 C.ar    1  UNL1       -0.0611
     15 C           2.0000    0.4776    0.0000 C.ar    1  UNL1       -0.0598
     16 C           7.6255    2.4200    0.0000 C.3     1  UNL1       -0.0598
     17 C           6.0528   -2.4200    0.0000 C.3     1  UNL1        0.0789
     18 H           4.5274    2.2218    0.0000 H       1  UNL1        0.1660
     19 H           6.6210    2.8202    0.0000 H       1  UNL1        0.0326
     20 H           6.0349    2.2800    0.0000 H       1  UNL1        0.0326
     21 H           3.5408   -1.3092    0.0000 H       1  UNL1        0.0624
     22 H           2.5182    1.8381    0.0000 H       1  UNL1        0.0638
     23 H           7.1459   -0.9754    0.0000 H       1  UNL1        0.0867
     24 H           1.9088   -0.9754    0.0000 H       1  UNL1        0.0618
     25 H           1.3940    0.6088    0.0000 H       1  UNL1        0.0618
     26 H           7.7614    1.8151    0.0000 H       1  UNL1        0.0233
     27 H           8.2304    2.5559    0.0000 H       1  UNL1        0.0233
     28 H           7.4896    3.0250    0.0000 H       1  UNL1        0.0233
     29 H           5.5873   -2.8295    0.0000 H       1  UNL1        0.0660
     30 H           6.4623   -2.8856    0.0000 H       1  UNL1        0.0660
     31 H           6.5183   -2.0105    0.0000 H       1  UNL1        0.0660
@<TRIPOS>BOND
     1     1     9    1
     2     1    17    1
     3     2     5   ar
     4     2     7   ar
     5     2    18    1
     6     3     8   ar
     7     3    13   ar
     8     4     5   ar
     9     4     6   ar
    10     4     9   ar
    11     5     8   ar
    12     6     7   ar
    13     6    11   ar
    14     7    12   ar
    15     8    10    1
    16     9    13   ar
    17    10    16    1
    18    10    19    1
    19    10    20    1
    20    11    14   ar
    21    11    21    1
    22    12    15   ar
    23    12    22    1
    24    13    23    1
    25    14    15   ar
    26    14    24    1
    27    15    25    1
    28    16    26    1
    29    16    27    1
    30    16    28    1
    31    17    29    1
    32    17    30    1
    33    17    31    1
