@<TRIPOS>MOLECULE
IMPHY015917
 28 30 0 0 0
SMALL
GASTEIGER

@<TRIPOS>ATOM
      1 N           6.4103   -0.3853    0.0000 N.ar    1  UNL1       -0.3417
      2 N           3.7320   -0.6900    0.0000 N.ar    1  UNL1       -0.2171
      3 N           4.5981   -2.1900    0.0000 N.ar    1  UNL1       -0.1934
      4 N           6.4103   -1.9947    0.0000 N.ar    1  UNL1       -0.2164
      5 N           2.8660   -2.1900    0.0000 N.pl3   1  UNL1       -0.3274
      6 C           4.5981    0.8100    0.0000 C.3     1  UNL1        0.0170
      7 C           4.5981   -0.1900    0.0000 C.ar    1  UNL1        0.0760
      8 C           5.4641   -0.6900    0.0000 C.ar    1  UNL1        0.1071
      9 C           3.7320    1.3100    0.0000 C.ar    1  UNL1       -0.0415
     10 C           5.4641   -1.6900    0.0000 C.ar    1  UNL1        0.1827
     11 C           3.7320    2.3100    0.0000 C.ar    1  UNL1       -0.0582
     12 C           2.8660    0.8100    0.0000 C.ar    1  UNL1       -0.0582
     13 C           3.7320   -1.6900    0.0000 C.ar    1  UNL1        0.2148
     14 C           6.9939   -1.1900    0.0000 C.ar    1  UNL1        0.0963
     15 C           2.8660    2.8100    0.0000 C.ar    1  UNL1       -0.0615
     16 C           2.0000    1.3100    0.0000 C.ar    1  UNL1       -0.0615
     17 C           2.0000    2.3100    0.0000 C.ar    1  UNL1       -0.0617
     18 H           5.2087    0.7023    0.0000 H       1  UNL1        0.0377
     19 H           4.8101    1.3926    0.0000 H       1  UNL1        0.0377
     20 H           6.6029    0.2041    0.0000 H       1  UNL1        0.1669
     21 H           4.2690    2.6200    0.0000 H       1  UNL1        0.0620
     22 H           2.8660    0.1900    0.0000 H       1  UNL1        0.0620
     23 H           7.6139   -1.1900    0.0000 H       1  UNL1        0.1027
     24 H           2.8660    3.4300    0.0000 H       1  UNL1        0.0618
     25 H           1.4631    1.0000    0.0000 H       1  UNL1        0.0618
     26 H           1.4631    2.6200    0.0000 H       1  UNL1        0.0618
     27 H           2.8660   -2.8100    0.0000 H       1  UNL1        0.1452
     28 H           2.3291   -1.8800    0.0000 H       1  UNL1        0.1452
@<TRIPOS>BOND
     1     1     8   ar
     2     1    14   ar
     3     1    20    1
     4     2     7   ar
     5     2    13   ar
     6     3    10   ar
     7     3    13   ar
     8     4    10   ar
     9     4    14   ar
    10     5    13    1
    11     5    27    1
    12     5    28    1
    13     6     7    1
    14     6     9    1
    15     6    18    1
    16     6    19    1
    17     7     8   ar
    18     8    10   ar
    19     9    11   ar
    20     9    12   ar
    21    11    15   ar
    22    11    21    1
    23    12    16   ar
    24    12    22    1
    25    14    23    1
    26    15    17   ar
    27    15    24    1
    28    16    17   ar
    29    16    25    1
    30    17    26    1
