@<TRIPOS>MOLECULE
IMPHY007105
 30 31 0 0 0
SMALL
GASTEIGER

@<TRIPOS>ATOM
      1 O           2.0000    0.2500    0.0000 O.2     1  UNL1       -0.2920
      2 C           3.7320    1.2500    0.0000 C.3     1  UNL1       -0.0207
      3 C           3.7320    0.2500    0.0000 C.3     1  UNL1        0.0144
      4 C           4.5981    1.7500    0.0000 C.ar    1  UNL1       -0.0469
      5 C           2.8660   -0.2500    0.0000 C.2     1  UNL1        0.1635
      6 C           2.8660   -1.2500    0.0000 C.ar    1  UNL1        0.0174
      7 C           5.4641    1.2500    0.0000 C.ar    1  UNL1       -0.0586
      8 C           4.5981    2.7500    0.0000 C.ar    1  UNL1       -0.0586
      9 C           2.0000   -1.7500    0.0000 C.ar    1  UNL1       -0.0513
     10 C           3.7320   -1.7500    0.0000 C.ar    1  UNL1       -0.0513
     11 C           6.3301    1.7500    0.0000 C.ar    1  UNL1       -0.0615
     12 C           5.4641    3.2500    0.0000 C.ar    1  UNL1       -0.0615
     13 C           6.3301    2.7500    0.0000 C.ar    1  UNL1       -0.0617
     14 C           2.0000   -2.7500    0.0000 C.ar    1  UNL1       -0.0611
     15 C           3.7320   -2.7500    0.0000 C.ar    1  UNL1       -0.0611
     16 C           2.8660   -3.2500    0.0000 C.ar    1  UNL1       -0.0617
     17 H           3.5200    1.8326    0.0000 H       1  UNL1        0.0317
     18 H           3.1215    1.1423    0.0000 H       1  UNL1        0.0317
     19 H           3.9441   -0.3326    0.0000 H       1  UNL1        0.0348
     20 H           4.3426    0.3577    0.0000 H       1  UNL1        0.0348
     21 H           5.4641    0.6300    0.0000 H       1  UNL1        0.0620
     22 H           4.0611    3.0600    0.0000 H       1  UNL1        0.0620
     23 H           1.4631   -1.4400    0.0000 H       1  UNL1        0.0624
     24 H           4.2690   -1.4400    0.0000 H       1  UNL1        0.0624
     25 H           6.8671    1.4400    0.0000 H       1  UNL1        0.0618
     26 H           5.4641    3.8700    0.0000 H       1  UNL1        0.0618
     27 H           6.8671    3.0600    0.0000 H       1  UNL1        0.0618
     28 H           1.4631   -3.0600    0.0000 H       1  UNL1        0.0618
     29 H           4.2690   -3.0600    0.0000 H       1  UNL1        0.0618
     30 H           2.8660   -3.8700    0.0000 H       1  UNL1        0.0618
@<TRIPOS>BOND
     1     1     5    2
     2     2     3    1
     3     2     4    1
     4     2    17    1
     5     2    18    1
     6     3     5    1
     7     3    19    1
     8     3    20    1
     9     4     7   ar
    10     4     8   ar
    11     5     6    1
    12     6     9   ar
    13     6    10   ar
    14     7    11   ar
    15     7    21    1
    16     8    12   ar
    17     8    22    1
    18     9    14   ar
    19     9    23    1
    20    10    15   ar
    21    10    24    1
    22    11    13   ar
    23    11    25    1
    24    12    13   ar
    25    12    26    1
    26    13    27    1
    27    14    16   ar
    28    14    28    1
    29    15    16   ar
    30    15    29    1
    31    16    30    1
