@<TRIPOS>MOLECULE
IMPHY000668
 31 32 0 0 0
SMALL
GASTEIGER

@<TRIPOS>ATOM
      1 C        2499.8500 2474.4900    0.0000 C.2     1  UNL1        0.1733
      2 C        2534.4900 2454.5400    0.0000 C.3     1  UNL1        0.0739
      3 C        2569.1300 2474.4900    0.0000 C.3     1  UNL1        0.0377
      4 C        2569.0300 2525.5100    0.0000 C.ar    1  UNL1        0.0221
      5 C        2534.4900 2545.5600    0.0000 C.ar    1  UNL1        0.0488
      6 C        2499.8500 2525.5100    0.0000 C.3     1  UNL1        0.1716
      7 O        2465.2100 2545.5600    0.0000 O.3     1  UNL1       -0.3489
      8 C        2430.9700 2524.9100    0.0000 C.3     1  UNL1        0.1427
      9 C        2396.3300 2544.8600    0.0000 C.3     1  UNL1        0.0347
     10 C        2534.4900 2585.5600    0.0000 C.ar    1  UNL1        0.2358
     11 O        2500.1500 2606.2000    0.0000 O.3     1  UNL1       -0.2833
     12 C        2569.1300 2605.5100    0.0000 C.ar    1  UNL1        0.2757
     13 C        2603.6700 2585.5600    0.0000 C.ar    1  UNL1        0.2756
     14 C        2603.7700 2545.5600    0.0000 C.ar    1  UNL1        0.2335
     15 O        2638.0100 2525.0100    0.0000 O.3     1  UNL1       -0.2834
     16 O        2638.7100 2604.9100    0.0000 O.3     1  UNL1       -0.2796
     17 O        2569.1300 2645.5100    0.0000 O.3     1  UNL1       -0.2796
     18 O        2499.8500 2514.4900    0.0000 O.2     1  UNL1       -0.2913
     19 C        2465.2100 2454.5400    0.0000 C.ar    1  UNL1        0.0372
     20 C        2465.2100 2414.5400    0.0000 C.ar    1  UNL1        0.0813
     21 C        2499.8500 2394.4900    0.0000 C.2     1  UNL1        0.3414
     22 O        2534.4900 2414.5400    0.0000 O.3     1  UNL1       -0.4454
     23 C        2569.1300 2394.4900    0.0000 C.3     1  UNL1        0.2089
     24 C        2603.7700 2414.5400    0.0000 C.3     1  UNL1        0.0513
     25 O        2499.8500 2354.4900    0.0000 O.2     1  UNL1       -0.2449
     26 C        2430.4700 2394.4900    0.0000 C.ar    1  UNL1        0.0485
     27 C        2395.9300 2414.5400    0.0000 C.ar    1  UNL1        0.1956
     28 C        2395.9300 2454.5400    0.0000 C.ar    1  UNL1        0.0379
     29 C        2430.4700 2474.4900    0.0000 C.ar    1  UNL1       -0.0157
     30 C        2430.4700 2514.4900    0.0000 C.3     1  UNL1        0.0312
     31 O        2361.2900 2394.4900    0.0000 O.3     1  UNL1       -0.2866
@<TRIPOS>BOND
     1     1     2    1
     2     1    18    2
     3     1    19    1
     4     2     3    1
     5     3     4    1
     6     4     5   ar
     7     4    14   ar
     8     5     6    1
     9     5    10   ar
    10     6     7    1
    11     7     8    1
    12     8     9    1
    13    10    11    1
    14    10    12   ar
    15    12    17    1
    16    13    12   ar
    17    13    16    1
    18    14    13   ar
    19    14    15    1
    20    19    20   ar
    21    19    29   ar
    22    20    21    1
    23    20    26   ar
    24    21    22    1
    25    21    25    2
    26    22    23    1
    27    23    24    1
    28    26    27   ar
    29    27    31    1
    30    28    27   ar
    31    29    28   ar
    32    29    30    1
