@<TRIPOS>MOLECULE
IMPHY011005
 28 30 0 0 0
SMALL
GASTEIGER

@<TRIPOS>ATOM
      1 O           2.1910    1.5936    0.0000 O.2     1  UNL1       -0.4991
      2 O           5.1703   -2.5071    0.0000 O.2     1  UNL1       -0.4991
      3 C           3.2788   -0.7543    0.0000 C.3     1  UNL1       -0.0049
      4 C           2.4698   -0.1665    0.0000 C.3     1  UNL1        0.0389
      5 C           3.5884   -1.6989    0.0000 C.3     1  UNL1        0.0389
      6 C           4.0878   -0.1665    0.0000 C.3     1  UNL1        0.0067
      7 C           4.5825   -1.6981    0.0000 C.2     1  UNL1        0.1010
      8 C           2.7788    0.7845    0.0000 C.2     1  UNL1        0.1010
      9 C           3.7788    0.7845    0.0000 C.2     1  UNL1       -0.0386
     10 C           4.8905   -0.7529    0.0000 C.2     1  UNL1       -0.0386
     11 C           2.0000   -1.0594    0.0000 C.2     1  UNL1       -0.0766
     12 C           2.5949   -1.8743    0.0000 C.2     1  UNL1       -0.0766
     13 C           2.5977    2.5071    0.0000 C.3     1  UNL1        0.0783
     14 C           6.1648   -2.4026    0.0000 C.3     1  UNL1        0.0783
     15 H           2.7777   -1.1194    0.0000 H       1  UNL1        0.0329
     16 H           3.6428   -2.3166    0.0000 H       1  UNL1        0.0425
     17 H           1.8985    0.0745    0.0000 H       1  UNL1        0.0425
     18 H           4.5899    0.1972    0.0000 H       1  UNL1        0.0391
     19 H           5.4805   -0.5623    0.0000 H       1  UNL1        0.0611
     20 H           4.1432    1.2861    0.0000 H       1  UNL1        0.0611
     21 H           2.3633   -2.4494    0.0000 H       1  UNL1        0.0576
     22 H           1.3817   -1.1047    0.0000 H       1  UNL1        0.0576
     23 H           6.2296   -3.0192    0.0000 H       1  UNL1        0.0660
     24 H           3.1641    2.2549    0.0000 H       1  UNL1        0.0660
     25 H           2.8499    3.0735    0.0000 H       1  UNL1        0.0660
     26 H           2.0313    2.7593    0.0000 H       1  UNL1        0.0660
     27 H           6.7814   -2.3378    0.0000 H       1  UNL1        0.0660
     28 H           6.1000   -1.7860    0.0000 H       1  UNL1        0.0660
@<TRIPOS>BOND
     1     1     8    1
     2     1    13    1
     3     2     7    1
     4     2    14    1
     5     3     4    1
     6     3     5    1
     7     3     6    1
     8     3    15    1
     9     4     8    1
    10     4    11    1
    11     4    17    1
    12     5     7    1
    13     5    12    1
    14     5    16    1
    15     6     9    1
    16     6    10    1
    17     6    18    1
    18     7    10    2
    19     8     9    2
    20     9    20    1
    21    10    19    1
    22    11    12    2
    23    11    22    1
    24    12    21    1
    25    13    24    1
    26    13    25    1
    27    13    26    1
    28    14    23    1
    29    14    27    1
    30    14    28    1
