@<TRIPOS>MOLECULE
IMPHY001016
 120 127 0 0 0
SMALL
GASTEIGER

@<TRIPOS>ATOM
      1 O          18.3182    1.8777    0.0000 O.3     1  UNL1       -0.3876
      2 O          17.4387   -1.6189    0.0000 O.3     1  UNL1       -0.3911
      3 O          20.8423    0.3680    0.0000 O.3     1  UNL1       -0.3911
      4 O          12.9292    2.9508    0.0000 O.3     1  UNL1       -0.3480
      5 O          20.5108   -2.6934    0.0000 O.3     1  UNL1       -0.4571
      6 O          11.1972    2.9508    0.0000 O.3     1  UNL1       -0.3456
      7 O          19.2481   -3.9508    0.0000 O.2     1  UNL1       -0.2456
      8 O          11.1972   -0.0492    0.0000 O.3     1  UNL1       -0.3890
      9 O           9.4651    0.9508    0.0000 O.3     1  UNL1       -0.3429
     10 O           8.5991    2.4508    0.0000 O.3     1  UNL1       -0.3456
     11 O           6.0010    2.9508    0.0000 O.3     1  UNL1       -0.3429
     12 O           6.0010    0.9508    0.0000 O.3     1  UNL1       -0.3890
     13 O           5.1350    1.4508    0.0000 O.3     1  UNL1       -0.3456
     14 O           2.5369    2.9508    0.0000 O.3     1  UNL1       -0.3890
     15 O           2.5369    0.9508    0.0000 O.3     1  UNL1       -0.3867
     16 C          18.3144    0.8777    0.0000 C.3     1  UNL1        0.0798
     17 C          17.4503    1.3810    0.0000 C.3     1  UNL1       -0.0080
     18 C          18.3105   -0.1223    0.0000 C.3     1  UNL1        0.0319
     19 C          16.5823    0.8844    0.0000 C.3     1  UNL1       -0.0276
     20 C          15.6743    1.3947    0.0000 C.3     1  UNL1       -0.0258
     21 C          17.4426   -0.6189    0.0000 C.3     1  UNL1        0.0641
     22 C          15.6703    2.4364    0.0000 C.3     1  UNL1       -0.0330
     23 C          19.2556   -0.4307    0.0000 C.3     1  UNL1        0.0202
     24 C          16.5785   -0.1156    0.0000 C.3     1  UNL1       -0.0225
     25 C          19.2618    1.1788    0.0000 C.3     1  UNL1        0.0036
     26 C          17.4704    2.4225    0.0000 C.3     1  UNL1       -0.0470
     27 C          19.8423    0.3718    0.0000 C.3     1  UNL1        0.0651
     28 C          16.5744    2.9537    0.0000 C.3     1  UNL1       -0.0493
     29 C          14.7453    0.8342    0.0000 C.3     1  UNL1       -0.0448
     30 C          18.3067   -1.1223    0.0000 C.3     1  UNL1       -0.0539
     31 C          14.7370    2.9897    0.0000 C.3     1  UNL1       -0.0232
     32 C          15.6782    0.3947    0.0000 C.3     1  UNL1       -0.0590
     33 C          13.7994    1.3658    0.0000 C.3     1  UNL1       -0.0260
     34 C          13.7953    2.4508    0.0000 C.3     1  UNL1        0.0620
     35 C          19.5626   -1.3824    0.0000 C.2     1  UNL1       -0.0197
     36 C          20.5130   -1.6934    0.0000 C.3     1  UNL1        0.1148
     37 C          18.9731   -2.1901    0.0000 C.2     1  UNL1        0.0253
     38 C          19.5591   -3.0004    0.0000 C.2     1  UNL1        0.3323
     39 C          12.0632    2.4508    0.0000 C.3     1  UNL1        0.1624
     40 C          12.0632    1.4508    0.0000 C.3     1  UNL1        0.0270
     41 C          11.1972    0.9508    0.0000 C.3     1  UNL1        0.0884
     42 C          10.3312    2.4508    0.0000 C.3     1  UNL1        0.0875
     43 C          10.3312    1.4508    0.0000 C.3     1  UNL1        0.1134
     44 C           9.4651    2.9508    0.0000 C.3     1  UNL1       -0.0361
     45 C           8.5991    1.4508    0.0000 C.3     1  UNL1        0.1626
     46 C           7.7331    0.9508    0.0000 C.3     1  UNL1        0.0270
     47 C           6.8671    1.4508    0.0000 C.3     1  UNL1        0.0884
     48 C           7.7331    2.9508    0.0000 C.3     1  UNL1        0.0875
     49 C           6.8671    2.4508    0.0000 C.3     1  UNL1        0.1134
     50 C           7.7331    3.9508    0.0000 C.3     1  UNL1       -0.0361
     51 C           5.1350    2.4508    0.0000 C.3     1  UNL1        0.1626
     52 C           4.2690    2.9508    0.0000 C.3     1  UNL1        0.0270
     53 C           3.4030    2.4508    0.0000 C.3     1  UNL1        0.0881
     54 C           4.2690    0.9508    0.0000 C.3     1  UNL1        0.0871
     55 C           3.4030    1.4508    0.0000 C.3     1  UNL1        0.1070
     56 C           4.2690   -0.0492    0.0000 C.3     1  UNL1       -0.0361
     57 H          18.1913    1.7975    0.0000 H       1  UNL1        0.0331
     58 H          17.3168    0.4565    0.0000 H       1  UNL1        0.0310
     59 H          16.9044   -0.9269    0.0000 H       1  UNL1        0.0600
     60 H          15.6768    3.2863    0.0000 H       1  UNL1        0.0307
     61 H          19.8677   -0.5292    0.0000 H       1  UNL1        0.0379
     62 H          15.9683   -0.0056    0.0000 H       1  UNL1        0.0293
     63 H          16.3642   -0.6974    0.0000 H       1  UNL1        0.0293
     64 H          19.8003    1.4859    0.0000 H       1  UNL1        0.0318
     65 H          19.0129    1.7466    0.0000 H       1  UNL1        0.0318
     66 H          18.0791    2.3046    0.0000 H       1  UNL1        0.0269
     67 H          17.6906    3.0020    0.0000 H       1  UNL1        0.0269
     68 H          20.1261    0.9230    0.0000 H       1  UNL1        0.0600
     69 H          16.9771    3.4250    0.0000 H       1  UNL1        0.0268
     70 H          16.1789    3.4312    0.0000 H       1  UNL1        0.0268
     71 H          14.3535    0.3537    0.0000 H       1  UNL1        0.0271
     72 H          15.1517    0.3660    0.0000 H       1  UNL1        0.0271
     73 H          17.6867   -1.1199    0.0000 H       1  UNL1        0.0237
     74 H          18.3043   -1.7423    0.0000 H       1  UNL1        0.0237
     75 H          18.9267   -1.1247    0.0000 H       1  UNL1        0.0237
     76 H          15.1398    3.4610    0.0000 H       1  UNL1        0.0293
     77 H          14.3415    3.4672    0.0000 H       1  UNL1        0.0293
     78 H          15.0582    0.3923    0.0000 H       1  UNL1        0.0235
     79 H          15.6805   -0.2253    0.0000 H       1  UNL1        0.0235
     80 H          16.2981    0.3971    0.0000 H       1  UNL1        0.0235
     81 H          13.1882    1.4696    0.0000 H       1  UNL1        0.0290
     82 H          13.5926    0.7813    0.0000 H       1  UNL1        0.0290
     83 H          13.7965    3.0708    0.0000 H       1  UNL1        0.0597
     84 H          18.8564    2.1856    0.0000 H       1  UNL1        0.2102
     85 H          16.9006   -1.9269    0.0000 H       1  UNL1        0.2098
     86 H          21.1543    0.9037    0.0000 H       1  UNL1        0.2098
     87 H          21.1294   -1.7595    0.0000 H       1  UNL1        0.0746
     88 H          20.6431   -1.0872    0.0000 H       1  UNL1        0.0746
     89 H          18.3531   -2.1888    0.0000 H       1  UNL1        0.0689
     90 H          12.6002    2.1408    0.0000 H       1  UNL1        0.0910
     91 H          12.2753    0.8682    0.0000 H       1  UNL1        0.0340
     92 H          12.6738    1.5585    0.0000 H       1  UNL1        0.0340
     93 H          11.7341    0.6408    0.0000 H       1  UNL1        0.0622
     94 H          10.3312    3.0708    0.0000 H       1  UNL1        0.0621
     95 H           9.7942    1.7608    0.0000 H       1  UNL1        0.0649
     96 H           9.7751    3.4877    0.0000 H       1  UNL1        0.0255
     97 H           8.9282    3.2608    0.0000 H       1  UNL1        0.0255
     98 H           9.1551    2.4139    0.0000 H       1  UNL1        0.0255
     99 H          11.7341   -0.3592    0.0000 H       1  UNL1        0.2099
    100 H           8.5991    0.8308    0.0000 H       1  UNL1        0.0910
    101 H           7.3346    0.4759    0.0000 H       1  UNL1        0.0340
    102 H           8.1316    0.4759    0.0000 H       1  UNL1        0.0340
    103 H           6.3301    1.7608    0.0000 H       1  UNL1        0.0622
    104 H           8.2700    3.2608    0.0000 H       1  UNL1        0.0621
    105 H           6.8671    3.0708    0.0000 H       1  UNL1        0.0649
    106 H           8.3531    3.9508    0.0000 H       1  UNL1        0.0255
    107 H           7.7331    4.5708    0.0000 H       1  UNL1        0.0255
    108 H           7.1131    3.9508    0.0000 H       1  UNL1        0.0255
    109 H           6.0010    0.3308    0.0000 H       1  UNL1        0.2099
    110 H           5.1350    3.0708    0.0000 H       1  UNL1        0.0910
    111 H           4.6675    3.4258    0.0000 H       1  UNL1        0.0340
    112 H           3.8705    3.4258    0.0000 H       1  UNL1        0.0340
    113 H           3.4030    3.0708    0.0000 H       1  UNL1        0.0621
    114 H           4.8059    0.6408    0.0000 H       1  UNL1        0.0621
    115 H           3.4030    0.8308    0.0000 H       1  UNL1        0.0645
    116 H           3.6490   -0.0492    0.0000 H       1  UNL1        0.0255
    117 H           4.2690   -0.6692    0.0000 H       1  UNL1        0.0255
    118 H           4.8890   -0.0492    0.0000 H       1  UNL1        0.0255
    119 H           2.5369    3.5708    0.0000 H       1  UNL1        0.2099
    120 H           2.0000    1.2608    0.0000 H       1  UNL1        0.2100
@<TRIPOS>BOND
     1    16     1    1
     2     1    84    1
     3    21     2    1
     4     2    85    1
     5    27     3    1
     6     3    86    1
     7    34     4    1
     8    39     4    1
     9     5    36    1
    10     5    38    1
    11     6    39    1
    12     6    42    1
    13     7    38    2
    14    41     8    1
    15     8    99    1
    16    43     9    1
    17    45     9    1
    18    10    45    1
    19    10    48    1
    20    49    11    1
    21    51    11    1
    22    47    12    1
    23    12   109    1
    24    13    51    1
    25    13    54    1
    26    53    14    1
    27    14   119    1
    28    55    15    1
    29    15   120    1
    30    16    17    1
    31    16    18    1
    32    16    25    1
    33    17    19    1
    34    17    26    1
    35    17    57    1
    36    18    21    1
    37    18    23    1
    38    18    30    1
    39    19    20    1
    40    19    24    1
    41    19    58    1
    42    20    22    1
    43    20    29    1
    44    20    32    1
    45    21    24    1
    46    21    59    1
    47    22    28    1
    48    22    31    1
    49    22    60    1
    50    23    27    1
    51    23    35    1
    52    23    61    1
    53    24    62    1
    54    24    63    1
    55    25    27    1
    56    25    64    1
    57    25    65    1
    58    26    28    1
    59    26    66    1
    60    26    67    1
    61    27    68    1
    62    28    69    1
    63    28    70    1
    64    29    33    1
    65    29    71    1
    66    29    72    1
    67    30    73    1
    68    30    74    1
    69    30    75    1
    70    31    34    1
    71    31    76    1
    72    31    77    1
    73    32    78    1
    74    32    79    1
    75    32    80    1
    76    33    34    1
    77    33    81    1
    78    33    82    1
    79    34    83    1
    80    35    36    1
    81    35    37    2
    82    36    87    1
    83    36    88    1
    84    37    38    1
    85    37    89    1
    86    39    40    1
    87    39    90    1
    88    40    41    1
    89    40    91    1
    90    40    92    1
    91    41    43    1
    92    41    93    1
    93    42    43    1
    94    42    44    1
    95    42    94    1
    96    43    95    1
    97    44    96    1
    98    44    97    1
    99    44    98    1
   100    45    46    1
   101    45   100    1
   102    46    47    1
   103    46   101    1
   104    46   102    1
   105    47    49    1
   106    47   103    1
   107    48    49    1
   108    48    50    1
   109    48   104    1
   110    49   105    1
   111    50   106    1
   112    50   107    1
   113    50   108    1
   114    51    52    1
   115    51   110    1
   116    52    53    1
   117    52   111    1
   118    52   112    1
   119    53    55    1
   120    53   113    1
   121    54    55    1
   122    54    56    1
   123    54   114    1
   124    55   115    1
   125    56   116    1
   126    56   117    1
   127    56   118    1
