@<TRIPOS>MOLECULE
IMPHY007755
 33 35 0 0 0
SMALL
GASTEIGER

@<TRIPOS>ATOM
      1 O           6.0290   -0.9226    0.0000 O.3     1  UNL1       -0.4828
      2 O           6.0174    2.1467    0.0000 O.2     1  UNL1       -0.2917
      3 O           4.2690    2.1121    0.0000 O.3     1  UNL1       -0.5027
      4 O           2.5369    1.1121    0.0000 O.3     1  UNL1       -0.5009
      5 O           2.5369   -0.8879    0.0000 O.3     1  UNL1       -0.5031
      6 O          10.3914   -2.4221    0.0000 O.3     1  UNL1       -0.5068
      7 C           6.9350   -0.4087    0.0000 C.3     1  UNL1        0.1322
      8 C           6.9350    0.6329    0.0000 C.3     1  UNL1        0.0520
      9 C           5.1350    0.6121    0.0000 C.ar    1  UNL1        0.1043
     10 C           7.7991   -0.9121    0.0000 C.ar    1  UNL1       -0.0067
     11 C           6.0290    1.1467    0.0000 C.2     1  UNL1        0.1741
     12 C           5.1350   -0.3879    0.0000 C.ar    1  UNL1        0.1391
     13 C           4.2690    1.1121    0.0000 C.ar    1  UNL1        0.1762
     14 C           4.2690   -0.8879    0.0000 C.ar    1  UNL1        0.0262
     15 C           7.7953   -1.9121    0.0000 C.ar    1  UNL1       -0.0516
     16 C           8.6671   -0.4154    0.0000 C.ar    1  UNL1       -0.0516
     17 C           3.4030    0.6121    0.0000 C.ar    1  UNL1        0.2015
     18 C           3.4030   -0.3879    0.0000 C.ar    1  UNL1        0.1655
     19 C           8.6594   -2.4154    0.0000 C.ar    1  UNL1       -0.0198
     20 C           9.5312   -0.9188    0.0000 C.ar    1  UNL1       -0.0198
     21 C           9.5273   -1.9187    0.0000 C.ar    1  UNL1        0.1169
     22 H           7.4726   -0.0998    0.0000 H       1  UNL1        0.0789
     23 H           7.5459    0.5268    0.0000 H       1  UNL1        0.0385
     24 H           7.1441    1.2166    0.0000 H       1  UNL1        0.0385
     25 H           4.2690   -1.5079    0.0000 H       1  UNL1        0.0692
     26 H           7.2571   -2.2200    0.0000 H       1  UNL1        0.0623
     27 H           8.6694    0.2046    0.0000 H       1  UNL1        0.0623
     28 H           8.6570   -3.0354    0.0000 H       1  UNL1        0.0654
     29 H          10.0693   -0.6108    0.0000 H       1  UNL1        0.0654
     30 H           3.7320    2.4221    0.0000 H       1  UNL1        0.2923
     31 H           2.0000    0.8021    0.0000 H       1  UNL1        0.2924
     32 H           2.5369   -1.5079    0.0000 H       1  UNL1        0.2923
     33 H          10.9295   -2.1142    0.0000 H       1  UNL1        0.2921
@<TRIPOS>BOND
     1     1     7    1
     2     1    12    1
     3     2    11    2
     4     3    13    1
     5     3    30    1
     6     4    17    1
     7     4    31    1
     8     5    18    1
     9     5    32    1
    10     6    21    1
    11     6    33    1
    12     7     8    1
    13     7    10    1
    14     7    22    1
    15     8    11    1
    16     8    23    1
    17     8    24    1
    18     9    11    1
    19     9    12   ar
    20     9    13   ar
    21    10    15   ar
    22    10    16   ar
    23    12    14   ar
    24    13    17   ar
    25    14    18   ar
    26    14    25    1
    27    15    19   ar
    28    15    26    1
    29    16    20   ar
    30    16    27    1
    31    17    18   ar
    32    19    21   ar
    33    19    28    1
    34    20    21   ar
    35    20    29    1
