@<TRIPOS>MOLECULE
IMPHY002449
 52 57 0 0 0
SMALL
GASTEIGER

@<TRIPOS>ATOM
      1 O           3.2328    2.3790    0.0000 O.3     1  UNL1       -0.3717
      2 O           7.0444   -0.4196    0.0000 O.2     1  UNL1       -0.2964
      3 O           2.0000   -0.7075    0.0000 O.2     1  UNL1       -0.2752
      4 O           2.6822   -2.5256    0.0000 O.3     1  UNL1       -0.5049
      5 N           3.7094   -0.5867    0.0000 N.am    1  UNL1       -0.2632
      6 N           6.9920    1.4931    0.0000 N.3     1  UNL1       -0.3014
      7 C           4.4464    0.0804    0.0000 C.3     1  UNL1        0.0533
      8 C           5.3124   -0.4196    0.0000 C.3     1  UNL1        0.0760
      9 C           4.4464    1.0804    0.0000 C.3     1  UNL1        0.0129
     10 C           5.3124    1.5804    0.0000 C.3     1  UNL1       -0.0050
     11 C           3.5244    1.4356    0.0000 C.3     1  UNL1        0.0724
     12 C           6.1784    1.0804    0.0000 C.3     1  UNL1        0.0137
     13 C           5.1032   -1.3915    0.0000 C.ar    1  UNL1       -0.0073
     14 C           6.1784    0.0804    0.0000 C.2     1  UNL1        0.1462
     15 C           6.2909   -0.2463    0.0000 C.3     1  UNL1       -0.0219
     16 C           4.1145   -1.4945    0.0000 C.ar    1  UNL1        0.0825
     17 C           2.7361    0.8400    0.0000 C.3     1  UNL1        0.0511
     18 C           5.4485    2.5584    0.0000 C.2     1  UNL1       -0.0535
     19 C           2.8261   -0.1439    0.0000 C.2     1  UNL1        0.2226
     20 C           6.9466    0.5004    0.0000 C.3     1  UNL1        0.0002
     21 C           6.4071    2.2965    0.0000 C.3     1  UNL1        0.0201
     22 C           5.7240   -2.2202    0.0000 C.ar    1  UNL1       -0.0556
     23 C           4.7706    3.2764    0.0000 C.2     1  UNL1       -0.0579
     24 C           3.6780   -2.4335    0.0000 C.ar    1  UNL1        0.1385
     25 C           3.7864    3.1967    0.0000 C.3     1  UNL1        0.0665
     26 C           5.3093   -3.1690    0.0000 C.ar    1  UNL1       -0.0579
     27 C           4.2794   -3.2764    0.0000 C.ar    1  UNL1       -0.0183
     28 C           7.9497    1.7808    0.0000 C.3     1  UNL1       -0.0124
     29 H           4.4464   -0.7696    0.0000 H       1  UNL1        0.0521
     30 H           3.7103    0.6554    0.0000 H       1  UNL1        0.0350
     31 H           6.0485    2.0054    0.0000 H       1  UNL1        0.0354
     32 H           3.8428    2.2238    0.0000 H       1  UNL1        0.0604
     33 H           6.7890    0.9727    0.0000 H       1  UNL1        0.0348
     34 H           6.3905    1.6630    0.0000 H       1  UNL1        0.0348
     35 H           6.2146   -0.8616    0.0000 H       1  UNL1        0.0291
     36 H           6.8565   -0.5002    0.0000 H       1  UNL1        0.0291
     37 H           2.4599    1.3951    0.0000 H       1  UNL1        0.0384
     38 H           2.1397    0.6707    0.0000 H       1  UNL1        0.0384
     39 H           7.2715   -0.0276    0.0000 H       1  UNL1        0.0427
     40 H           7.5469    0.6556    0.0000 H       1  UNL1        0.0427
     41 H           6.9935    2.4978    0.0000 H       1  UNL1        0.0472
     42 H           6.3873    2.9162    0.0000 H       1  UNL1        0.0472
     43 H           6.3398   -2.1488    0.0000 H       1  UNL1        0.0621
     44 H           4.9929    3.8552    0.0000 H       1  UNL1        0.0595
     45 H           3.8757    3.8102    0.0000 H       1  UNL1        0.0604
     46 H           3.2083    3.4208    0.0000 H       1  UNL1        0.0604
     47 H           5.6752   -3.6695    0.0000 H       1  UNL1        0.0619
     48 H           4.0245   -3.8416    0.0000 H       1  UNL1        0.0655
     49 H           8.1280    1.1870    0.0000 H       1  UNL1        0.0391
     50 H           8.5435    1.9591    0.0000 H       1  UNL1        0.0391
     51 H           7.7713    2.3746    0.0000 H       1  UNL1        0.0391
     52 H           2.4230   -3.0889    0.0000 H       1  UNL1        0.2922
@<TRIPOS>BOND
     1     1    11    1
     2     1    25    1
     3     2    14    2
     4     3    19    2
     5     4    24    1
     6     4    52    1
     7     5     7    1
     8     5    16    1
     9     5    19   am
    10     6    20    1
    11     6    21    1
    12     6    28    1
    13     7     8    1
    14     7     9    1
    15     7    29    1
    16     8    13    1
    17     8    14    1
    18     8    15    1
    19     9    10    1
    20     9    11    1
    21     9    30    1
    22    10    12    1
    23    10    18    1
    24    10    31    1
    25    11    17    1
    26    11    32    1
    27    12    14    1
    28    12    33    1
    29    12    34    1
    30    13    16   ar
    31    13    22   ar
    32    15    20    1
    33    15    35    1
    34    15    36    1
    35    16    24   ar
    36    17    19    1
    37    17    37    1
    38    17    38    1
    39    18    21    1
    40    18    23    2
    41    20    39    1
    42    20    40    1
    43    21    41    1
    44    21    42    1
    45    22    26   ar
    46    22    43    1
    47    23    25    1
    48    23    44    1
    49    24    27   ar
    50    25    45    1
    51    25    46    1
    52    26    27   ar
    53    26    47    1
    54    27    48    1
    55    28    49    1
    56    28    50    1
    57    28    51    1
