@<TRIPOS>MOLECULE
IMPHY000438
 30 31 0 0 0
SMALL
GASTEIGER

@<TRIPOS>ATOM
      1 O           7.0278   -2.1590    0.0000 O.3     1  UNL1       -0.3912
      2 O           2.5079   -0.0138    0.0000 O.3     1  UNL1       -0.3915
      3 C           5.1289   -0.7841    0.0000 C.3     1  UNL1        0.0017
      4 C           4.6511    1.1644    0.0000 C.3     1  UNL1       -0.0218
      5 C           5.3877    0.1818    0.0000 C.3     1  UNL1       -0.0069
      6 C           6.5278   -1.2929    0.0000 C.3     1  UNL1        0.0615
      7 C           3.7562   -1.3761    0.0000 C.3     1  UNL1       -0.0183
      8 C           3.4142   -0.4364    0.0000 C.3     1  UNL1        0.0592
      9 C           6.7867   -0.3270    0.0000 C.3     1  UNL1       -0.0206
     10 C           4.8701   -1.7500    0.0000 C.3     1  UNL1       -0.0566
     11 C           4.7556    2.1590    0.0000 C.3     1  UNL1       -0.0589
     12 C           3.7376    1.5712    0.0000 C.3     1  UNL1       -0.0589
     13 H           5.3737   -0.4380    0.0000 H       1  UNL1        0.0332
     14 H           6.1294   -1.7679    0.0000 H       1  UNL1        0.0599
     15 H           3.1778   -1.5994    0.0000 H       1  UNL1        0.0296
     16 H           3.9907   -1.9501    0.0000 H       1  UNL1        0.0296
     17 H           3.4553    0.1822    0.0000 H       1  UNL1        0.0596
     18 H           7.3806   -0.5048    0.0000 H       1  UNL1        0.0294
     19 H           6.9816    0.2616    0.0000 H       1  UNL1        0.0294
     20 H           4.2712   -1.5896    0.0000 H       1  UNL1        0.0236
     21 H           4.7096   -2.3489    0.0000 H       1  UNL1        0.0236
     22 H           5.4690   -1.9105    0.0000 H       1  UNL1        0.0236
     23 H           3.9897    2.1376    0.0000 H       1  UNL1        0.0235
     24 H           5.3722    2.0942    0.0000 H       1  UNL1        0.0235
     25 H           4.8204    2.7756    0.0000 H       1  UNL1        0.0235
     26 H           4.1390    2.2238    0.0000 H       1  UNL1        0.0235
     27 H           3.1712    1.8233    0.0000 H       1  UNL1        0.0235
     28 H           3.4854    1.0048    0.0000 H       1  UNL1        0.0235
     29 H           7.6478   -2.1590    0.0000 H       1  UNL1        0.2098
     30 H           2.0000   -0.3694    0.0000 H       1  UNL1        0.2098
@<TRIPOS>BOND
     1     6     1    1
     2     1    29    1
     3     8     2    1
     4     2    30    1
     5     3     4    1
     6     3     6    1
     7     3     7    1
     8     3    10    1
     9     4     5    1
    10     4    11    1
    11     4    12    1
    12     5     8    1
    13     5     9    1
    14     5    13    1
    15     6     9    1
    16     6    14    1
    17     7     8    1
    18     7    15    1
    19     7    16    1
    20     8    17    1
    21     9    18    1
    22     9    19    1
    23    10    20    1
    24    10    21    1
    25    10    22    1
    26    11    24    1
    27    11    25    1
    28    11    26    1
    29    12    23    1
    30    12    27    1
    31    12    28    1
