@<TRIPOS>MOLECULE
IMPHY010643
 21 23 0 0 0
SMALL
GASTEIGER

@<TRIPOS>ATOM
      1 O           8.0541   -1.9882    0.0000 O.3     1  UNL1       -0.3539
      2 C           8.0541   -3.3321    0.0000 C.3     1  UNL1        0.1200
      3 C           6.9035   -3.9948    0.0000 C.3     1  UNL1        0.0557
      4 C           5.7621   -3.3321    0.0000 C.ar    1  UNL1       -0.0183
      5 C           5.7621   -1.9882    0.0000 C.ar    1  UNL1        0.0397
      6 C           6.9035   -1.3347    0.0000 C.3     1  UNL1        0.1402
      7 C           4.6115   -3.9948    0.0000 C.ar    1  UNL1       -0.0008
      8 C           3.4609   -3.3321    0.0000 C.ar    1  UNL1        0.0480
      9 C           2.3012   -3.9948    0.0000 C.2     1  UNL1        0.2341
     10 C           1.1506   -3.3321    0.0000 C.2     1  UNL1        0.2333
     11 C           1.1506   -1.9882    0.0000 C.2     1  UNL1        0.0593
     12 C           2.3012   -1.3347    0.0000 C.2     1  UNL1        0.1980
     13 C           3.4609   -1.9882    0.0000 C.ar    1  UNL1        0.0805
     14 C           4.6115   -1.3347    0.0000 C.ar    1  UNL1        0.1967
     15 C           9.2046   -3.9948    0.0000 C.3     1  UNL1        0.0324
     16 C           6.9035    0.0000    0.0000 C.3     1  UNL1        0.0371
     17 O           2.3012   -5.3203    0.0000 O.2     1  UNL1       -0.2832
     18 O           0.0000   -3.9948    0.0000 O.2     1  UNL1       -0.2834
     19 C           0.0000   -1.3347    0.0000 C.3     1  UNL1        0.0379
     20 O           2.3012    0.0000    0.0000 O.2     1  UNL1       -0.2867
     21 O           4.6115    0.0000    0.0000 O.3     1  UNL1       -0.2867
@<TRIPOS>BOND
     1     1     6    1
     2     1     2    1
     3     2     3    1
     4     2    15    1
     5     3     4    1
     6     4     5   ar
     7     4     7   ar
     8     5    14   ar
     9     5     6    1
    10     6    16    1
    11     7     8   ar
    12     8    13   ar
    13     8     9    1
    14     9    10    1
    15     9    17    2
    16    10    11    2
    17    10    18    1
    18    11    12    1
    19    11    19    1
    20    12    13    1
    21    12    20    2
    22    13    14   ar
    23    14    21    1
