@<TRIPOS>MOLECULE
IMPHY015462
 77 76 0 0 0
SMALL
GASTEIGER

@<TRIPOS>ATOM
      1 C           8.9282    2.7500    0.0000 C.3     1  UNL1       -0.0410
      2 C           9.7942    3.2500    0.0000 C.3     1  UNL1       -0.0502
      3 C           8.0622    3.2500    0.0000 C.3     1  UNL1       -0.0502
      4 C           8.9282    1.7500    0.0000 C.3     1  UNL1       -0.0502
      5 C          10.6603    2.7500    0.0000 C.3     1  UNL1       -0.0528
      6 C           7.1962    2.7500    0.0000 C.3     1  UNL1       -0.0528
      7 C           8.0622    1.2500    0.0000 C.3     1  UNL1       -0.0528
      8 C          11.5263    3.2500    0.0000 C.3     1  UNL1       -0.0530
      9 C           6.3301    3.2500    0.0000 C.3     1  UNL1       -0.0530
     10 C           8.0622    0.2500    0.0000 C.3     1  UNL1       -0.0530
     11 C          12.3923    2.7500    0.0000 C.3     1  UNL1       -0.0531
     12 C           5.4641    2.7500    0.0000 C.3     1  UNL1       -0.0531
     13 C           7.1962   -0.2500    0.0000 C.3     1  UNL1       -0.0531
     14 C          13.2583    3.2500    0.0000 C.3     1  UNL1       -0.0531
     15 C           4.5981    3.2500    0.0000 C.3     1  UNL1       -0.0531
     16 C           7.1962   -1.2500    0.0000 C.3     1  UNL1       -0.0531
     17 C          14.1244    2.7500    0.0000 C.3     1  UNL1       -0.0533
     18 C           3.7320    2.7500    0.0000 C.3     1  UNL1       -0.0533
     19 C           6.3301   -1.7500    0.0000 C.3     1  UNL1       -0.0533
     20 C          14.9904    3.2500    0.0000 C.3     1  UNL1       -0.0559
     21 C           2.8660    3.2500    0.0000 C.3     1  UNL1       -0.0559
     22 C           6.3301   -2.7500    0.0000 C.3     1  UNL1       -0.0559
     23 C          15.8564    2.7500    0.0000 C.3     1  UNL1       -0.0653
     24 C           2.0000    2.7500    0.0000 C.3     1  UNL1       -0.0653
     25 C           5.4641   -3.2500    0.0000 C.3     1  UNL1       -0.0653
     26 H           9.4651    2.4400    0.0000 H       1  UNL1        0.0301
     27 H          10.1928    3.7250    0.0000 H       1  UNL1        0.0268
     28 H           9.3957    3.7250    0.0000 H       1  UNL1        0.0268
     29 H           8.4607    3.7250    0.0000 H       1  UNL1        0.0268
     30 H           7.6636    3.7250    0.0000 H       1  UNL1        0.0268
     31 H           9.1403    1.1674    0.0000 H       1  UNL1        0.0268
     32 H           9.5388    1.8577    0.0000 H       1  UNL1        0.0268
     33 H          10.2617    2.2750    0.0000 H       1  UNL1        0.0265
     34 H          11.0588    2.2750    0.0000 H       1  UNL1        0.0265
     35 H           6.7976    2.2750    0.0000 H       1  UNL1        0.0265
     36 H           7.5947    2.2750    0.0000 H       1  UNL1        0.0265
     37 H           7.8501    1.8326    0.0000 H       1  UNL1        0.0265
     38 H           7.4516    1.1423    0.0000 H       1  UNL1        0.0265
     39 H          11.9248    3.7250    0.0000 H       1  UNL1        0.0265
     40 H          11.1278    3.7250    0.0000 H       1  UNL1        0.0265
     41 H           6.7287    3.7250    0.0000 H       1  UNL1        0.0265
     42 H           5.9316    3.7250    0.0000 H       1  UNL1        0.0265
     43 H           8.2742   -0.3326    0.0000 H       1  UNL1        0.0265
     44 H           8.6728    0.3577    0.0000 H       1  UNL1        0.0265
     45 H          11.9938    2.2750    0.0000 H       1  UNL1        0.0265
     46 H          12.7908    2.2750    0.0000 H       1  UNL1        0.0265
     47 H           5.0656    2.2750    0.0000 H       1  UNL1        0.0265
     48 H           5.8626    2.2750    0.0000 H       1  UNL1        0.0265
     49 H           6.9841    0.3326    0.0000 H       1  UNL1        0.0265
     50 H           6.5856   -0.3577    0.0000 H       1  UNL1        0.0265
     51 H          13.6569    3.7250    0.0000 H       1  UNL1        0.0265
     52 H          12.8598    3.7250    0.0000 H       1  UNL1        0.0265
     53 H           4.9966    3.7250    0.0000 H       1  UNL1        0.0265
     54 H           4.1996    3.7250    0.0000 H       1  UNL1        0.0265
     55 H           7.4082   -1.8326    0.0000 H       1  UNL1        0.0265
     56 H           7.8067   -1.1423    0.0000 H       1  UNL1        0.0265
     57 H          13.7258    2.2750    0.0000 H       1  UNL1        0.0265
     58 H          14.5229    2.2750    0.0000 H       1  UNL1        0.0265
     59 H           3.3335    2.2750    0.0000 H       1  UNL1        0.0265
     60 H           4.1306    2.2750    0.0000 H       1  UNL1        0.0265
     61 H           6.1181   -1.1674    0.0000 H       1  UNL1        0.0265
     62 H           5.7196   -1.8577    0.0000 H       1  UNL1        0.0265
     63 H          15.3889    3.7250    0.0000 H       1  UNL1        0.0263
     64 H          14.5919    3.7250    0.0000 H       1  UNL1        0.0263
     65 H           3.2646    3.7250    0.0000 H       1  UNL1        0.0263
     66 H           2.4675    3.7250    0.0000 H       1  UNL1        0.0263
     67 H           6.5422   -3.3326    0.0000 H       1  UNL1        0.0263
     68 H           6.9407   -2.6423    0.0000 H       1  UNL1        0.0263
     69 H          15.5464    2.2131    0.0000 H       1  UNL1        0.0230
     70 H          16.3933    2.4400    0.0000 H       1  UNL1        0.0230
     71 H          16.1664    3.2869    0.0000 H       1  UNL1        0.0230
     72 H           1.6900    3.2869    0.0000 H       1  UNL1        0.0230
     73 H           1.4631    2.4400    0.0000 H       1  UNL1        0.0230
     74 H           2.3100    2.2131    0.0000 H       1  UNL1        0.0230
     75 H           5.1541   -2.7131    0.0000 H       1  UNL1        0.0230
     76 H           4.9272   -3.5600    0.0000 H       1  UNL1        0.0230
     77 H           5.7741   -3.7869    0.0000 H       1  UNL1        0.0230
@<TRIPOS>BOND
     1     1     2    1
     2     1     3    1
     3     1     4    1
     4     1    26    1
     5     2     5    1
     6     2    27    1
     7     2    28    1
     8     3     6    1
     9     3    29    1
    10     3    30    1
    11     4     7    1
    12     4    31    1
    13     4    32    1
    14     5     8    1
    15     5    33    1
    16     5    34    1
    17     6     9    1
    18     6    35    1
    19     6    36    1
    20     7    10    1
    21     7    37    1
    22     7    38    1
    23     8    11    1
    24     8    39    1
    25     8    40    1
    26     9    12    1
    27     9    41    1
    28     9    42    1
    29    10    13    1
    30    10    43    1
    31    10    44    1
    32    11    14    1
    33    11    45    1
    34    11    46    1
    35    12    15    1
    36    12    47    1
    37    12    48    1
    38    13    16    1
    39    13    49    1
    40    13    50    1
    41    14    17    1
    42    14    51    1
    43    14    52    1
    44    15    18    1
    45    15    53    1
    46    15    54    1
    47    16    19    1
    48    16    55    1
    49    16    56    1
    50    17    20    1
    51    17    57    1
    52    17    58    1
    53    18    21    1
    54    18    59    1
    55    18    60    1
    56    19    22    1
    57    19    61    1
    58    19    62    1
    59    20    23    1
    60    20    63    1
    61    20    64    1
    62    21    24    1
    63    21    65    1
    64    21    66    1
    65    22    25    1
    66    22    67    1
    67    22    68    1
    68    23    69    1
    69    23    70    1
    70    23    71    1
    71    24    72    1
    72    24    73    1
    73    24    74    1
    74    25    75    1
    75    25    76    1
    76    25    77    1
