@<TRIPOS>MOLECULE
IMPHY006924
 28 28 0 0 0
SMALL
GASTEIGER

@<TRIPOS>ATOM
      1 O           3.7320    2.7500    0.0000 O.3     1  UNL1       -0.3943
      2 O           5.4641    2.7500    0.0000 O.3     1  UNL1       -0.3943
      3 O           2.8660   -1.7500    0.0000 O.3     1  UNL1       -0.4915
      4 O           4.5981   -2.7500    0.0000 O.3     1  UNL1       -0.5033
      5 C           4.5981    1.2500    0.0000 C.3     1  UNL1        0.0305
      6 C           4.5981    0.2500    0.0000 C.ar    1  UNL1       -0.0363
      7 C           5.4641    1.7500    0.0000 C.3     1  UNL1        0.0531
      8 C           3.7320    1.7500    0.0000 C.3     1  UNL1        0.0531
      9 C           3.7320   -0.2500    0.0000 C.ar    1  UNL1       -0.0127
     10 C           5.4641   -0.2500    0.0000 C.ar    1  UNL1       -0.0545
     11 C           3.7320   -1.2500    0.0000 C.ar    1  UNL1        0.1615
     12 C           5.4641   -1.2500    0.0000 C.ar    1  UNL1       -0.0163
     13 C           4.5981   -1.7500    0.0000 C.ar    1  UNL1        0.1585
     14 C           2.0000   -1.2500    0.0000 C.3     1  UNL1        0.0790
     15 H           4.5981    1.8700    0.0000 H       1  UNL1        0.0393
     16 H           5.6762    1.1674    0.0000 H       1  UNL1        0.0564
     17 H           6.0747    1.8577    0.0000 H       1  UNL1        0.0564
     18 H           3.1215    1.8577    0.0000 H       1  UNL1        0.0564
     19 H           3.5200    1.1674    0.0000 H       1  UNL1        0.0564
     20 H           3.1951    0.0600    0.0000 H       1  UNL1        0.0658
     21 H           6.0010    0.0600    0.0000 H       1  UNL1        0.0622
     22 H           6.0010   -1.5600    0.0000 H       1  UNL1        0.0655
     23 H           3.1951    3.0600    0.0000 H       1  UNL1        0.2094
     24 H           6.0010    3.0600    0.0000 H       1  UNL1        0.2094
     25 H           5.1350   -3.0600    0.0000 H       1  UNL1        0.2923
     26 H           2.3100   -0.7131    0.0000 H       1  UNL1        0.0660
     27 H           1.4631   -0.9400    0.0000 H       1  UNL1        0.0660
     28 H           1.6900   -1.7869    0.0000 H       1  UNL1        0.0660
@<TRIPOS>BOND
     1     1     8    1
     2     1    23    1
     3     2     7    1
     4     2    24    1
     5     3    11    1
     6     3    14    1
     7     4    13    1
     8     4    25    1
     9     5     6    1
    10     5     7    1
    11     5     8    1
    12     5    15    1
    13     6     9   ar
    14     6    10   ar
    15     7    16    1
    16     7    17    1
    17     8    18    1
    18     8    19    1
    19     9    11   ar
    20     9    20    1
    21    10    12   ar
    22    10    21    1
    23    11    13   ar
    24    12    13   ar
    25    12    22    1
    26    14    26    1
    27    14    27    1
    28    14    28    1
