@<TRIPOS>MOLECULE
IMPHY005440
 86 89 0 0 0
SMALL
GASTEIGER

@<TRIPOS>ATOM
      1 O           7.0628    1.4290    0.0000 O.3     1  UNL1       -0.3915
      2 O           6.1847   -4.1403    0.0000 O.3     1  UNL1       -0.3915
      3 O           2.5357   -3.1234    0.0000 O.3     1  UNL1       -0.3912
      4 O          10.1362    0.8736    0.0000 O.3     1  UNL1       -0.3886
      5 C           7.0628   -1.5710    0.0000 C.3     1  UNL1       -0.0206
      6 C           7.9288   -1.0710    0.0000 C.3     1  UNL1       -0.0208
      7 C           6.1968   -1.0710    0.0000 C.3     1  UNL1       -0.0269
      8 C           5.2868   -1.5779    0.0000 C.3     1  UNL1       -0.0228
      9 C           7.9288   -0.0710    0.0000 C.3     1  UNL1       -0.0036
     10 C           5.2787   -2.6195    0.0000 C.3     1  UNL1       -0.0018
     11 C           7.0789   -2.6125    0.0000 C.3     1  UNL1       -0.0204
     12 C           6.1968   -0.0710    0.0000 C.3     1  UNL1       -0.0227
     13 C           8.8750    0.2337    0.0000 C.3     1  UNL1       -0.0067
     14 C           7.0628    0.4290    0.0000 C.3     1  UNL1        0.0592
     15 C           8.8750   -1.3758    0.0000 C.3     1  UNL1       -0.0464
     16 C           6.1808   -3.1403    0.0000 C.3     1  UNL1        0.0597
     17 C           4.3433   -3.1692    0.0000 C.3     1  UNL1       -0.0033
     18 C           9.4586   -0.5710    0.0000 C.3     1  UNL1       -0.0467
     19 C           4.3599   -1.0138    0.0000 C.3     1  UNL1       -0.0446
     20 C           7.7056   -2.3371    0.0000 C.3     1  UNL1       -0.0587
     21 C           8.2709   -2.0107    0.0000 C.3     1  UNL1       -0.0587
     22 C           5.2945   -0.5779    0.0000 C.3     1  UNL1       -0.0589
     23 C           3.4037   -2.6267    0.0000 C.3     1  UNL1        0.0607
     24 C           9.1857    1.1842    0.0000 C.3     1  UNL1        0.0668
     25 C           3.4120   -1.5418    0.0000 C.3     1  UNL1       -0.0258
     26 C           3.8467   -4.0371    0.0000 C.3     1  UNL1       -0.0571
     27 C           4.8466   -4.0333    0.0000 C.3     1  UNL1       -0.0571
     28 C           9.4964    2.1347    0.0000 C.3     1  UNL1       -0.0206
     29 C           8.2352    1.4949    0.0000 C.3     1  UNL1       -0.0358
     30 C          10.4749    2.3410    0.0000 C.3     1  UNL1       -0.0319
     31 C          10.7855    3.2915    0.0000 C.2     1  UNL1       -0.0852
     32 C          11.7640    3.4977    0.0000 C.2     1  UNL1       -0.0796
     33 C          12.0747    4.4482    0.0000 C.3     1  UNL1       -0.0440
     34 C          12.4319    2.7534    0.0000 C.3     1  UNL1       -0.0440
     35 H           6.9329   -0.6460    0.0000 H       1  UNL1        0.0312
     36 H           8.0188    0.7742    0.0000 H       1  UNL1        0.0335
     37 H           5.2820   -3.4695    0.0000 H       1  UNL1        0.0337
     38 H           7.2969   -3.1929    0.0000 H       1  UNL1        0.0296
     39 H           7.6880   -2.4970    0.0000 H       1  UNL1        0.0296
     40 H           5.9847    0.5116    0.0000 H       1  UNL1        0.0293
     41 H           5.5862   -0.1787    0.0000 H       1  UNL1        0.0293
     42 H           9.7148    0.3656    0.0000 H       1  UNL1        0.0332
     43 H           7.5997    0.7390    0.0000 H       1  UNL1        0.0596
     44 H           8.6240   -1.9427    0.0000 H       1  UNL1        0.0271
     45 H           9.4124   -1.6850    0.0000 H       1  UNL1        0.0271
     46 H           6.7195   -3.4472    0.0000 H       1  UNL1        0.0596
     47 H           9.9195   -0.9858    0.0000 H       1  UNL1        0.0269
     48 H           9.9195   -0.1563    0.0000 H       1  UNL1        0.0269
     49 H           4.7681   -0.5471    0.0000 H       1  UNL1        0.0271
     50 H           3.9700   -0.5318    0.0000 H       1  UNL1        0.0271
     51 H           7.2306   -2.7356    0.0000 H       1  UNL1        0.0235
     52 H           8.1041   -2.8120    0.0000 H       1  UNL1        0.0235
     53 H           8.1805   -1.9386    0.0000 H       1  UNL1        0.0235
     54 H           7.6884   -2.2228    0.0000 H       1  UNL1        0.0235
     55 H           8.4830   -2.5933    0.0000 H       1  UNL1        0.0235
     56 H           8.8535   -1.7986    0.0000 H       1  UNL1        0.0235
     57 H           5.9145   -0.5827    0.0000 H       1  UNL1        0.0235
     58 H           5.2993    0.0421    0.0000 H       1  UNL1        0.0235
     59 H           4.6745   -0.5731    0.0000 H       1  UNL1        0.0235
     60 H           2.8686   -2.3136    0.0000 H       1  UNL1        0.0599
     61 H           3.2075   -0.9565    0.0000 H       1  UNL1        0.0290
     62 H           2.8004   -1.6431    0.0000 H       1  UNL1        0.0290
     63 H           3.3085   -3.7292    0.0000 H       1  UNL1        0.0236
     64 H           3.5387   -4.5753    0.0000 H       1  UNL1        0.0236
     65 H           4.3848   -4.3451    0.0000 H       1  UNL1        0.0236
     66 H           4.3109   -4.3454    0.0000 H       1  UNL1        0.0236
     67 H           5.1587   -4.5690    0.0000 H       1  UNL1        0.0236
     68 H           5.3824   -3.7212    0.0000 H       1  UNL1        0.0236
     69 H           6.5259    1.7390    0.0000 H       1  UNL1        0.2098
     70 H           6.7228   -4.4482    0.0000 H       1  UNL1        0.2098
     71 H           9.4758    2.7544    0.0000 H       1  UNL1        0.0296
     72 H           8.8826    2.2221    0.0000 H       1  UNL1        0.0296
     73 H           8.4278    2.0842    0.0000 H       1  UNL1        0.0257
     74 H           7.6459    1.6875    0.0000 H       1  UNL1        0.0257
     75 H           8.0426    0.9056    0.0000 H       1  UNL1        0.0257
     76 H           2.0000   -2.8113    0.0000 H       1  UNL1        0.2098
     77 H          10.5977    1.2876    0.0000 H       1  UNL1        0.2102
     78 H          10.4954    1.7213    0.0000 H       1  UNL1        0.0308
     79 H          11.0887    2.2536    0.0000 H       1  UNL1        0.0308
     80 H          10.3715    3.7529    0.0000 H       1  UNL1        0.0571
     81 H          12.6640    4.2556    0.0000 H       1  UNL1        0.0274
     82 H          12.2673    5.0375    0.0000 H       1  UNL1        0.0274
     83 H          11.4854    4.6408    0.0000 H       1  UNL1        0.0274
     84 H          11.9704    2.3393    0.0000 H       1  UNL1        0.0274
     85 H          12.8459    2.2919    0.0000 H       1  UNL1        0.0274
     86 H          12.8934    3.1675    0.0000 H       1  UNL1        0.0274
@<TRIPOS>BOND
     1    14     1    1
     2     1    69    1
     3    16     2    1
     4     2    70    1
     5    23     3    1
     6     3    76    1
     7    24     4    1
     8     4    77    1
     9     5     6    1
    10     5     7    1
    11     5    11    1
    12     5    20    1
    13     6     9    1
    14     6    15    1
    15     6    21    1
    16     7     8    1
    17     7    12    1
    18     7    35    1
    19     8    10    1
    20     8    19    1
    21     8    22    1
    22     9    13    1
    23     9    14    1
    24     9    36    1
    25    10    16    1
    26    10    17    1
    27    10    37    1
    28    11    16    1
    29    11    38    1
    30    11    39    1
    31    12    14    1
    32    12    40    1
    33    12    41    1
    34    13    18    1
    35    13    24    1
    36    13    42    1
    37    14    43    1
    38    15    18    1
    39    15    44    1
    40    15    45    1
    41    16    46    1
    42    17    23    1
    43    17    26    1
    44    17    27    1
    45    18    47    1
    46    18    48    1
    47    19    25    1
    48    19    49    1
    49    19    50    1
    50    20    51    1
    51    20    52    1
    52    20    53    1
    53    21    54    1
    54    21    55    1
    55    21    56    1
    56    22    57    1
    57    22    58    1
    58    22    59    1
    59    23    25    1
    60    23    60    1
    61    24    28    1
    62    24    29    1
    63    25    61    1
    64    25    62    1
    65    26    63    1
    66    26    64    1
    67    26    65    1
    68    27    66    1
    69    27    67    1
    70    27    68    1
    71    28    30    1
    72    28    71    1
    73    28    72    1
    74    29    73    1
    75    29    74    1
    76    29    75    1
    77    30    31    1
    78    30    78    1
    79    30    79    1
    80    31    32    2
    81    31    80    1
    82    32    33    1
    83    32    34    1
    84    33    81    1
    85    33    82    1
    86    33    83    1
    87    34    84    1
    88    34    85    1
    89    34    86    1
