@<TRIPOS>MOLECULE
IMPHY017191
 33 33 0 0 0
SMALL
GASTEIGER

@<TRIPOS>ATOM
      1 O           2.5369    1.2500    0.0000 O.3     1  UNL1       -0.5065
      2 O           6.0010   -0.7500    0.0000 O.3     1  UNL1       -0.5065
      3 C           4.2690    2.2500    0.0000 C.3     1  UNL1       -0.0091
      4 C           4.2690    1.2500    0.0000 C.ar    1  UNL1        0.0029
      5 C           4.2690    3.2500    0.0000 C.3     1  UNL1       -0.0559
      6 C           5.2690    2.2500    0.0000 C.3     1  UNL1       -0.0559
      7 C           3.2690    2.2500    0.0000 C.3     1  UNL1       -0.0559
      8 C           3.4030    0.7500    0.0000 C.ar    1  UNL1        0.1210
      9 C           5.1350    0.7500    0.0000 C.ar    1  UNL1       -0.0128
     10 C           4.2690   -0.7500    0.0000 C.ar    1  UNL1        0.0012
     11 C           5.1350   -0.2500    0.0000 C.ar    1  UNL1        0.1208
     12 C           3.4030   -0.2500    0.0000 C.ar    1  UNL1       -0.0130
     13 C           4.2690   -1.7500    0.0000 C.3     1  UNL1       -0.0062
     14 C           3.4030   -2.2500    0.0000 C.2     1  UNL1       -0.0867
     15 C           3.4030   -3.2500    0.0000 C.2     1  UNL1       -0.1023
     16 H           4.8890    3.2500    0.0000 H       1  UNL1        0.0238
     17 H           4.2690    3.8700    0.0000 H       1  UNL1        0.0238
     18 H           3.6490    3.2500    0.0000 H       1  UNL1        0.0238
     19 H           5.2690    1.6300    0.0000 H       1  UNL1        0.0238
     20 H           5.8890    2.2500    0.0000 H       1  UNL1        0.0238
     21 H           5.2690    2.8700    0.0000 H       1  UNL1        0.0238
     22 H           3.2690    2.8700    0.0000 H       1  UNL1        0.0238
     23 H           2.6490    2.2500    0.0000 H       1  UNL1        0.0238
     24 H           3.2690    1.6300    0.0000 H       1  UNL1        0.0238
     25 H           5.6720    1.0600    0.0000 H       1  UNL1        0.0658
     26 H           2.8660   -0.5600    0.0000 H       1  UNL1        0.0658
     27 H           4.4810   -2.3326    0.0000 H       1  UNL1        0.0357
     28 H           4.8796   -1.6423    0.0000 H       1  UNL1        0.0357
     29 H           2.0000    0.9400    0.0000 H       1  UNL1        0.2921
     30 H           2.8660   -1.9400    0.0000 H       1  UNL1        0.0570
     31 H           6.5380   -0.4400    0.0000 H       1  UNL1        0.2921
     32 H           2.8660   -3.5600    0.0000 H       1  UNL1        0.0532
     33 H           3.9399   -3.5600    0.0000 H       1  UNL1        0.0532
@<TRIPOS>BOND
     1     1     8    1
     2     1    29    1
     3     2    11    1
     4     2    31    1
     5     3     4    1
     6     3     5    1
     7     3     6    1
     8     3     7    1
     9     4     8   ar
    10     4     9   ar
    11     5    16    1
    12     5    17    1
    13     5    18    1
    14     6    19    1
    15     6    20    1
    16     6    21    1
    17     7    22    1
    18     7    23    1
    19     7    24    1
    20     8    12   ar
    21     9    11   ar
    22     9    25    1
    23    10    11   ar
    24    10    12   ar
    25    10    13    1
    26    12    26    1
    27    13    14    1
    28    13    27    1
    29    13    28    1
    30    14    15    2
    31    14    30    1
    32    15    32    1
    33    15    33    1
