@<TRIPOS>MOLECULE
IMPHY007867
 39 42 0 0 0
SMALL
GASTEIGER

@<TRIPOS>ATOM
      1 O           5.5301   -1.9279    0.0000 O.2     1  UNL1       -0.4620
      2 O           9.9404   -0.2327    0.0000 O.3     1  UNL1       -0.4526
      3 O           9.9404    1.3768    0.0000 O.3     1  UNL1       -0.4525
      4 O           6.3961    1.5721    0.0000 O.3     1  UNL1       -0.4944
      5 O           5.5301    1.0721    0.0000 O.2     1  UNL1       -0.2864
      6 O           2.0000    0.0962    0.0000 O.3     1  UNL1       -0.4914
      7 O           2.0000   -1.9521    0.0000 O.3     1  UNL1       -0.5032
      8 C           7.2622    0.0721    0.0000 C.ar    1  UNL1        0.0341
      9 C           6.3961   -0.4279    0.0000 C.ar    1  UNL1        0.0679
     10 C           4.6641   -0.4279    0.0000 C.ar    1  UNL1        0.0682
     11 C           8.9942    0.0721    0.0000 C.ar    1  UNL1        0.1670
     12 C           7.2622    1.0721    0.0000 C.ar    1  UNL1        0.1317
     13 C           8.1282   -0.4279    0.0000 C.ar    1  UNL1       -0.0047
     14 C           5.5301    0.0721    0.0000 C.ar    1  UNL1        0.2004
     15 C           8.9942    1.0721    0.0000 C.ar    1  UNL1        0.1697
     16 C           4.6641   -1.4279    0.0000 C.ar    1  UNL1        0.1421
     17 C           8.1282    1.5721    0.0000 C.ar    1  UNL1        0.0262
     18 C           6.3961   -1.4279    0.0000 C.ar    1  UNL1        0.1040
     19 C           3.7702    0.1067    0.0000 C.ar    1  UNL1       -0.0019
     20 C          10.5241    0.5721    0.0000 C.3     1  UNL1        0.2332
     21 C           3.7702   -1.9626    0.0000 C.ar    1  UNL1        0.0265
     22 C           2.8641   -0.4071    0.0000 C.ar    1  UNL1        0.1622
     23 C           2.8641   -1.4487    0.0000 C.ar    1  UNL1        0.1620
     24 C           6.3961    2.5721    0.0000 C.3     1  UNL1        0.0788
     25 C           2.0038    1.0962    0.0000 C.3     1  UNL1        0.0790
     26 H           8.1282   -1.0479    0.0000 H       1  UNL1        0.0663
     27 H           8.1282    2.1921    0.0000 H       1  UNL1        0.0692
     28 H           6.9331   -1.7379    0.0000 H       1  UNL1        0.1037
     29 H           3.7773    0.7267    0.0000 H       1  UNL1        0.0663
     30 H          10.9849    0.1573    0.0000 H       1  UNL1        0.1166
     31 H          10.9849    0.9868    0.0000 H       1  UNL1        0.1166
     32 H           3.7773   -2.5826    0.0000 H       1  UNL1        0.0692
     33 H           7.0162    2.5721    0.0000 H       1  UNL1        0.0660
     34 H           6.3961    3.1921    0.0000 H       1  UNL1        0.0660
     35 H           5.7762    2.5721    0.0000 H       1  UNL1        0.0660
     36 H           2.0024   -2.5721    0.0000 H       1  UNL1        0.2923
     37 H           2.6238    1.0938    0.0000 H       1  UNL1        0.0660
     38 H           2.0062    1.7162    0.0000 H       1  UNL1        0.0660
     39 H           1.3839    1.0986    0.0000 H       1  UNL1        0.0660
@<TRIPOS>BOND
     1     1    16   ar
     2     1    18   ar
     3     2    11    1
     4     2    20    1
     5     3    15    1
     6     3    20    1
     7     4    12    1
     8     4    24    1
     9     5    14    2
    10     6    22    1
    11     6    25    1
    12     7    23    1
    13     7    36    1
    14     8     9    1
    15     8    12   ar
    16     8    13   ar
    17     9    14   ar
    18     9    18   ar
    19    10    14   ar
    20    10    16   ar
    21    10    19   ar
    22    11    13   ar
    23    11    15   ar
    24    12    17   ar
    25    13    26    1
    26    15    17   ar
    27    16    21   ar
    28    17    27    1
    29    18    28    1
    30    19    22   ar
    31    19    29    1
    32    20    30    1
    33    20    31    1
    34    21    23   ar
    35    21    32    1
    36    22    23   ar
    37    24    33    1
    38    24    34    1
    39    24    35    1
    40    25    37    1
    41    25    38    1
    42    25    39    1
