@<TRIPOS>MOLECULE
IMPHY009784
 18 18 0 0 0
SMALL
GASTEIGER

@<TRIPOS>ATOM
      1 O           2.5369    0.2500    0.0000 O.3     1  UNL1       -0.5061
      2 O           3.4030    1.7500    0.0000 O.2     1  UNL1       -0.2922
      3 C           4.2690    0.2500    0.0000 C.ar    1  UNL1        0.0585
      4 C           3.4030   -0.2500    0.0000 C.ar    1  UNL1        0.1273
      5 C           5.1350   -0.2500    0.0000 C.ar    1  UNL1       -0.0478
      6 C           4.2690    1.2500    0.0000 C.2     1  UNL1        0.1636
      7 C           3.4030   -1.2500    0.0000 C.ar    1  UNL1       -0.0195
      8 C           5.1350   -1.2500    0.0000 C.ar    1  UNL1       -0.0609
      9 C           4.2690   -1.7500    0.0000 C.ar    1  UNL1       -0.0583
     10 C           5.1350    1.7500    0.0000 C.3     1  UNL1       -0.0013
     11 H           5.6720    0.0600    0.0000 H       1  UNL1        0.0626
     12 H           2.8660   -1.5600    0.0000 H       1  UNL1        0.0654
     13 H           5.6720   -1.5600    0.0000 H       1  UNL1        0.0618
     14 H           4.2690   -2.3700    0.0000 H       1  UNL1        0.0619
     15 H           5.4450    1.2131    0.0000 H       1  UNL1        0.0309
     16 H           5.6720    2.0600    0.0000 H       1  UNL1        0.0309
     17 H           4.8250    2.2869    0.0000 H       1  UNL1        0.0309
     18 H           2.0000   -0.0600    0.0000 H       1  UNL1        0.2922
@<TRIPOS>BOND
     1     1     4    1
     2     1    18    1
     3     2     6    2
     4     3     4   ar
     5     3     5   ar
     6     3     6    1
     7     4     7   ar
     8     5     8   ar
     9     5    11    1
    10     6    10    1
    11     7     9   ar
    12     7    12    1
    13     8     9   ar
    14     8    13    1
    15     9    14    1
    16    10    15    1
    17    10    16    1
    18    10    17    1
