@<TRIPOS>MOLECULE
IMPHY002032
 56 58 0 0 0
SMALL
GASTEIGER

@<TRIPOS>ATOM
      1 O           6.4421    0.2716    0.0000 O.3     1  UNL1       -0.3597
      2 O           4.6660   -2.7352    0.0000 O.3     1  UNL1       -0.3888
      3 O           6.3981   -1.7352    0.0000 O.3     1  UNL1       -0.3864
      4 O           3.7782    1.7962    0.0000 O.2     1  UNL1       -0.2969
      5 C           3.8000   -0.2352    0.0000 C.3     1  UNL1       -0.0141
      6 C           3.8000   -1.2352    0.0000 C.3     1  UNL1       -0.0012
      7 C           4.6660    0.2648    0.0000 C.3     1  UNL1        0.0546
      8 C           2.9061   -1.7699    0.0000 C.3     1  UNL1       -0.0291
      9 C           5.5321   -0.2352    0.0000 C.3     1  UNL1        0.1059
     10 C           4.6660   -1.7352    0.0000 C.3     1  UNL1        0.0876
     11 C           2.9061    0.2994    0.0000 C.3     1  UNL1       -0.0465
     12 C           5.5321   -1.2352    0.0000 C.3     1  UNL1        0.1106
     13 C           2.0000   -1.2561    0.0000 C.3     1  UNL1       -0.0475
     14 C           2.0000   -0.2144    0.0000 C.3     1  UNL1       -0.0520
     15 C           3.8000    0.7648    0.0000 C.3     1  UNL1       -0.0585
     16 C           4.6500    1.3063    0.0000 C.2     1  UNL1        0.1428
     17 C           2.4161   -2.6416    0.0000 C.3     1  UNL1       -0.0595
     18 C           3.4160   -2.6301    0.0000 C.3     1  UNL1       -0.0595
     19 C           6.3981   -0.7352    0.0000 C.3     1  UNL1       -0.0326
     20 C           6.4501    1.3132    0.0000 C.3     1  UNL1        0.0920
     21 C           5.5480    1.8340    0.0000 C.3     1  UNL1        0.0387
     22 C           7.4501    1.3094    0.0000 C.3     1  UNL1       -0.0318
     23 C           6.9534    2.1773    0.0000 C.2     1  UNL1       -0.0595
     24 C           6.4568    3.0452    0.0000 C.2     1  UNL1       -0.0999
     25 H           3.8066   -2.0852    0.0000 H       1  UNL1        0.0337
     26 H           5.3989    0.6954    0.0000 H       1  UNL1        0.0412
     27 H           5.2030   -2.0452    0.0000 H       1  UNL1        0.0623
     28 H           3.3107    0.7692    0.0000 H       1  UNL1        0.0271
     29 H           2.5124    0.7784    0.0000 H       1  UNL1        0.0271
     30 H           6.0690   -0.9252    0.0000 H       1  UNL1        0.0648
     31 H           1.3891   -1.1500    0.0000 H       1  UNL1        0.0271
     32 H           1.7909   -1.8398    0.0000 H       1  UNL1        0.0271
     33 H           1.7909    0.3693    0.0000 H       1  UNL1        0.0266
     34 H           1.3891   -0.3205    0.0000 H       1  UNL1        0.0266
     35 H           4.4200    0.7648    0.0000 H       1  UNL1        0.0235
     36 H           3.8000    1.3848    0.0000 H       1  UNL1        0.0235
     37 H           3.1800    0.7648    0.0000 H       1  UNL1        0.0235
     38 H           1.8756   -2.3379    0.0000 H       1  UNL1        0.0235
     39 H           2.8827   -2.9463    0.0000 H       1  UNL1        0.0235
     40 H           3.7322   -3.1634    0.0000 H       1  UNL1        0.0235
     41 H           3.9494   -2.3139    0.0000 H       1  UNL1        0.0235
     42 H           2.1123   -3.1821    0.0000 H       1  UNL1        0.0235
     43 H           2.9566   -2.9454    0.0000 H       1  UNL1        0.0235
     44 H           6.0881   -1.2722    0.0000 H       1  UNL1        0.0258
     45 H           6.9350   -1.0452    0.0000 H       1  UNL1        0.0258
     46 H           6.7081   -0.1983    0.0000 H       1  UNL1        0.0258
     47 H           5.9453    2.3100    0.0000 H       1  UNL1        0.0373
     48 H           5.1470    2.3069    0.0000 H       1  UNL1        0.0373
     49 H           5.2030   -3.0452    0.0000 H       1  UNL1        0.2099
     50 H           6.3981   -2.3552    0.0000 H       1  UNL1        0.2100
     51 H           7.4477    0.6894    0.0000 H       1  UNL1        0.0261
     52 H           8.0701    1.3070    0.0000 H       1  UNL1        0.0261
     53 H           7.4525    1.9293    0.0000 H       1  UNL1        0.0261
     54 H           7.5734    2.1749    0.0000 H       1  UNL1        0.0595
     55 H           6.7688    3.5810    0.0000 H       1  UNL1        0.0533
     56 H           5.8368    3.0476    0.0000 H       1  UNL1        0.0533
@<TRIPOS>BOND
     1     1     9    1
     2     1    20    1
     3    10     2    1
     4     2    49    1
     5    12     3    1
     6     3    50    1
     7     4    16    2
     8     5     6    1
     9     5     7    1
    10     5    11    1
    11     5    15    1
    12     6     8    1
    13     6    10    1
    14     6    25    1
    15     7     9    1
    16     7    16    1
    17     7    26    1
    18     8    13    1
    19     8    17    1
    20     8    18    1
    21     9    12    1
    22     9    19    1
    23    10    12    1
    24    10    27    1
    25    11    14    1
    26    11    28    1
    27    11    29    1
    28    12    30    1
    29    13    14    1
    30    13    31    1
    31    13    32    1
    32    14    33    1
    33    14    34    1
    34    15    35    1
    35    15    36    1
    36    15    37    1
    37    16    21    1
    38    17    38    1
    39    17    42    1
    40    17    43    1
    41    18    39    1
    42    18    40    1
    43    18    41    1
    44    19    44    1
    45    19    45    1
    46    19    46    1
    47    20    21    1
    48    20    22    1
    49    20    23    1
    50    21    47    1
    51    21    48    1
    52    22    51    1
    53    22    52    1
    54    22    53    1
    55    23    24    2
    56    23    54    1
    57    24    55    1
    58    24    56    1
