@<TRIPOS>MOLECULE
IMPHY000673
 100 105 0 0 0
SMALL
GASTEIGER

@<TRIPOS>ATOM
      1 S           5.1350   -0.2393    0.0000 S.2     1  UNL1       -0.0161
      2 O           8.5991   -1.2393    0.0000 O.3     1  UNL1       -0.3302
      3 O          14.6720   -1.7549    0.0000 O.3     1  UNL1       -0.3302
      4 O          10.3312   -1.2393    0.0000 O.3     1  UNL1       -0.4598
      5 O          13.8233   -0.2450    0.0000 O.3     1  UNL1       -0.4515
      6 O           6.8671   -3.2393    0.0000 O.3     1  UNL1       -0.3864
      7 O           8.5991   -4.2393    0.0000 O.3     1  UNL1       -0.3864
      8 O          13.7771   -4.2447    0.0000 O.3     1  UNL1       -0.3864
      9 O          12.0567   -3.2247    0.0000 O.3     1  UNL1       -0.3864
     10 O          10.3312   -3.2393    0.0000 O.3     1  UNL1       -0.3829
     11 O          12.0799   -1.2249    0.0000 O.3     1  UNL1       -0.3829
     12 O           6.0010   -1.7393    0.0000 O.3     1  UNL1       -0.4856
     13 O          16.3923   -2.7748    0.0000 O.3     1  UNL1       -0.4589
     14 O          12.1145    1.7749    0.0000 O.2     1  UNL1       -0.1997
     15 O           8.5849    1.8399    0.0000 O.3     1  UNL1       -0.5063
     16 O          17.2410   -4.2848    0.0000 O.2     1  UNL1       -0.2456
     17 O          14.7414    4.2447    0.0000 O.3     1  UNL1       -0.5032
     18 O          16.4386    1.2249    0.0000 O.3     1  UNL1       -0.5032
     19 O          16.4617    3.2247    0.0000 O.3     1  UNL1       -0.5009
     20 O           2.5369   -1.7393    0.0000 O.3     1  UNL1       -0.4803
     21 O           3.4030   -0.2393    0.0000 O.2     1  UNL1       -0.2505
     22 O          22.4715   -1.3450    0.0000 O.3     1  UNL1       -0.5068
     23 C           7.7331   -2.7393    0.0000 C.3     1  UNL1        0.1130
     24 C           8.5991   -3.2393    0.0000 C.3     1  UNL1        0.1152
     25 C          13.7887   -3.2448    0.0000 C.3     1  UNL1        0.1130
     26 C          12.9285   -2.7348    0.0000 C.3     1  UNL1        0.1152
     27 C           7.7331   -1.7393    0.0000 C.3     1  UNL1        0.1249
     28 C           9.4651   -2.7393    0.0000 C.3     1  UNL1        0.1454
     29 C          14.6604   -2.7548    0.0000 C.3     1  UNL1        0.1250
     30 C          12.9400   -1.7349    0.0000 C.3     1  UNL1        0.1454
     31 C           9.4651   -1.7393    0.0000 C.3     1  UNL1        0.2309
     32 C          13.8118   -1.2449    0.0000 C.3     1  UNL1        0.2313
     33 C           6.8671   -1.2393    0.0000 C.3     1  UNL1        0.1186
     34 C          15.5206   -3.2648    0.0000 C.3     1  UNL1        0.1215
     35 C          10.3312   -0.2393    0.0000 C.ar    1  UNL1        0.1437
     36 C          12.9632    0.2650    0.0000 C.ar    1  UNL1        0.2288
     37 C          11.2312    0.2850    0.0000 C.ar    1  UNL1        0.1245
     38 C          12.0914   -0.2249    0.0000 C.ar    1  UNL1        0.0093
     39 C          12.9747    1.2649    0.0000 C.ar    1  UNL1        0.4047
     40 C          11.2428    1.2850    0.0000 C.ar    1  UNL1        0.3708
     41 C           9.4311    0.2850    0.0000 C.ar    1  UNL1        0.0229
     42 C          10.3551    1.8299    0.0000 C.ar    1  UNL1        0.0847
     43 C           9.4431    1.3266    0.0000 C.ar    1  UNL1        0.1293
     44 C          13.8465    1.7549    0.0000 C.ar    1  UNL1        0.0899
     45 C           5.1350   -1.2393    0.0000 C.2     1  UNL1        0.1523
     46 C          17.2525   -3.2848    0.0000 C.2     1  UNL1        0.3320
     47 C           4.2690   -1.7393    0.0000 C.3     1  UNL1        0.1092
     48 C          14.7067    1.2449    0.0000 C.ar    1  UNL1       -0.0000
     49 C          13.8580    2.7548    0.0000 C.ar    1  UNL1       -0.0000
     50 C          18.1243   -2.7949    0.0000 C.2     1  UNL1        0.0231
     51 C          14.7298    3.2448    0.0000 C.ar    1  UNL1        0.1628
     52 C          15.5784    1.7349    0.0000 C.ar    1  UNL1        0.1628
     53 C          15.5900    2.7348    0.0000 C.ar    1  UNL1        0.2006
     54 C           3.4030   -1.2393    0.0000 C.2     1  UNL1        0.3127
     55 C          18.9845   -3.3049    0.0000 C.2     1  UNL1       -0.0478
     56 C          19.8562   -2.8149    0.0000 C.ar    1  UNL1       -0.0246
     57 C          20.7164   -3.3249    0.0000 C.ar    1  UNL1       -0.0511
     58 C          19.8678   -1.8150    0.0000 C.ar    1  UNL1       -0.0511
     59 C          21.5882   -2.8349    0.0000 C.ar    1  UNL1       -0.0196
     60 C          20.7395   -1.3250    0.0000 C.ar    1  UNL1       -0.0196
     61 C          21.5997   -1.8350    0.0000 C.ar    1  UNL1        0.1169
     62 H           7.7331   -3.3593    0.0000 H       1  UNL1        0.0647
     63 H           9.1360   -3.5493    0.0000 H       1  UNL1        0.0648
     64 H          14.3220   -3.5610    0.0000 H       1  UNL1        0.0647
     65 H          12.3952   -2.4186    0.0000 H       1  UNL1        0.0648
     66 H           7.7331   -1.1193    0.0000 H       1  UNL1        0.0658
     67 H          10.0021   -2.4293    0.0000 H       1  UNL1        0.0683
     68 H          15.2009   -2.4510    0.0000 H       1  UNL1        0.0658
     69 H          12.9472   -1.1149    0.0000 H       1  UNL1        0.0683
     70 H           9.4651   -1.1193    0.0000 H       1  UNL1        0.1084
     71 H          14.3523   -0.9411    0.0000 H       1  UNL1        0.1084
     72 H           7.2656   -0.7643    0.0000 H       1  UNL1        0.0724
     73 H           6.4685   -0.7643    0.0000 H       1  UNL1        0.0724
     74 H          15.1166   -3.7351    0.0000 H       1  UNL1        0.0725
     75 H          15.9136   -3.7443    0.0000 H       1  UNL1        0.0725
     76 H           6.8671   -3.8593    0.0000 H       1  UNL1        0.2100
     77 H           8.0622   -4.5493    0.0000 H       1  UNL1        0.2100
     78 H          14.3104   -4.5609    0.0000 H       1  UNL1        0.2100
     79 H          12.0496   -3.8447    0.0000 H       1  UNL1        0.2100
     80 H          10.3312   -3.8593    0.0000 H       1  UNL1        0.2102
     81 H          11.5394   -1.5286    0.0000 H       1  UNL1        0.2102
     82 H          12.0842   -0.8449    0.0000 H       1  UNL1        0.0667
     83 H           8.8918   -0.0208    0.0000 H       1  UNL1        0.0691
     84 H          10.3694    2.4498    0.0000 H       1  UNL1        0.0749
     85 H           3.8705   -2.2142    0.0000 H       1  UNL1        0.0463
     86 H           4.6675   -2.2142    0.0000 H       1  UNL1        0.0463
     87 H          14.6995    0.6250    0.0000 H       1  UNL1        0.0664
     88 H          13.3247    3.0710    0.0000 H       1  UNL1        0.0664
     89 H          18.1314   -2.1749    0.0000 H       1  UNL1        0.0689
     90 H           8.5945    2.4598    0.0000 H       1  UNL1        0.2921
     91 H          18.9773   -3.9248    0.0000 H       1  UNL1        0.0626
     92 H          14.2080    4.5609    0.0000 H       1  UNL1        0.2923
     93 H          16.9791    1.5286    0.0000 H       1  UNL1        0.2923
     94 H          16.4689    3.8447    0.0000 H       1  UNL1        0.2924
     95 H           2.0000   -1.4293    0.0000 H       1  UNL1        0.2951
     96 H          20.7092   -3.9448    0.0000 H       1  UNL1        0.0625
     97 H          19.3345   -1.4988    0.0000 H       1  UNL1        0.0625
     98 H          22.1215   -3.1511    0.0000 H       1  UNL1        0.0654
     99 H          20.7467   -0.7051    0.0000 H       1  UNL1        0.0654
    100 H          23.0048   -1.6612    0.0000 H       1  UNL1        0.2921
@<TRIPOS>UNITY_ATOM_ATTR
14 1
charge 1
@<TRIPOS>BOND
     1     1    45    2
     2     2    27    1
     3     2    31    1
     4     3    29    1
     5     3    32    1
     6    31     4    1
     7     4    35    1
     8    32     5    1
     9     5    36    1
    10    23     6    1
    11     6    76    1
    12    24     7    1
    13     7    77    1
    14    25     8    1
    15     8    78    1
    16    26     9    1
    17     9    79    1
    18    28    10    1
    19    10    80    1
    20    30    11    1
    21    11    81    1
    22    12    33    1
    23    12    45    1
    24    13    34    1
    25    13    46    1
    26    14    39   ar
    27    14    40   ar
    28    15    43    1
    29    15    90    1
    30    16    46    2
    31    17    51    1
    32    17    92    1
    33    18    52    1
    34    18    93    1
    35    19    53    1
    36    19    94    1
    37    20    54    1
    38    20    95    1
    39    21    54    2
    40    22    61    1
    41    22   100    1
    42    23    24    1
    43    23    27    1
    44    23    62    1
    45    24    28    1
    46    24    63    1
    47    25    26    1
    48    25    29    1
    49    25    64    1
    50    26    30    1
    51    26    65    1
    52    27    33    1
    53    27    66    1
    54    28    31    1
    55    28    67    1
    56    29    34    1
    57    29    68    1
    58    30    32    1
    59    30    69    1
    60    31    70    1
    61    32    71    1
    62    33    72    1
    63    33    73    1
    64    34    74    1
    65    34    75    1
    66    35    37   ar
    67    35    41   ar
    68    36    38   ar
    69    36    39   ar
    70    37    38   ar
    71    37    40   ar
    72    38    82    1
    73    39    44    1
    74    40    42   ar
    75    41    43   ar
    76    41    83    1
    77    42    43   ar
    78    42    84    1
    79    44    48   ar
    80    44    49   ar
    81    45    47    1
    82    46    50    1
    83    47    54    1
    84    47    85    1
    85    47    86    1
    86    48    52   ar
    87    48    87    1
    88    49    51   ar
    89    49    88    1
    90    50    55    2
    91    50    89    1
    92    51    53   ar
    93    52    53   ar
    94    55    56    1
    95    55    91    1
    96    56    57   ar
    97    56    58   ar
    98    57    59   ar
    99    57    96    1
   100    58    60   ar
   101    58    97    1
   102    59    61   ar
   103    59    98    1
   104    60    61   ar
   105    60    99    1
