@<TRIPOS>MOLECULE
IMPHY004253
 84 88 0 0 0
SMALL
GASTEIGER

@<TRIPOS>ATOM
      1 O           2.8641   -1.9012    0.0000 O.3     1  UNL1       -0.3792
      2 C           8.2572    1.1511    0.0000 C.3     1  UNL1       -0.0194
      3 C           8.2572    0.1511    0.0000 C.3     1  UNL1       -0.0196
      4 C           9.1511    1.6858    0.0000 C.3     1  UNL1       -0.0292
      5 C          10.0572    1.1719    0.0000 C.3     1  UNL1       -0.0256
      6 C           7.3912   -0.3489    0.0000 C.3     1  UNL1       -0.0135
      7 C           9.1511   -0.3835    0.0000 C.3     1  UNL1       -0.0461
      8 C          10.8195    1.8727    0.0000 C.3     1  UNL1       -0.0330
      9 C          10.0572    0.1303    0.0000 C.3     1  UNL1       -0.0466
     10 C           9.3612    2.6997    0.0000 C.3     1  UNL1       -0.0489
     11 C           7.3912    1.6511    0.0000 C.3     1  UNL1       -0.0283
     12 C           5.6151   -0.3557    0.0000 C.3     1  UNL1       -0.0073
     13 C           6.5251    0.1511    0.0000 C.2     1  UNL1       -0.0636
     14 C          10.3902    2.8150    0.0000 C.3     1  UNL1       -0.0492
     15 C           5.6071   -1.3973    0.0000 C.3     1  UNL1       -0.0244
     16 C           7.4072   -1.3904    0.0000 C.3     1  UNL1       -0.0457
     17 C           8.2572    2.1511    0.0000 C.3     1  UNL1       -0.0585
     18 C           8.2572   -0.8489    0.0000 C.3     1  UNL1       -0.0585
     19 C           6.5092   -1.9181    0.0000 C.3     1  UNL1       -0.0483
     20 C           6.5251    1.1511    0.0000 C.2     1  UNL1       -0.0834
     21 C          10.9270    0.6786    0.0000 C.3     1  UNL1       -0.0590
     22 C           4.6717   -1.9470    0.0000 C.3     1  UNL1       -0.0051
     23 C          11.7996    1.6740    0.0000 C.3     1  UNL1       -0.0434
     24 C           4.6883    0.2084    0.0000 C.3     1  UNL1       -0.0413
     25 C           3.7320   -1.4046    0.0000 C.3     1  UNL1        0.0637
     26 C           5.6228    0.6442    0.0000 C.3     1  UNL1       -0.0556
     27 C           3.7404   -0.3196    0.0000 C.3     1  UNL1       -0.0253
     28 C           4.1750   -2.8150    0.0000 C.3     1  UNL1       -0.0572
     29 C           5.1750   -2.8111    0.0000 C.3     1  UNL1       -0.0572
     30 C          12.4617    2.4234    0.0000 C.3     1  UNL1       -0.0624
     31 C          12.1176    0.7259    0.0000 C.3     1  UNL1       -0.0624
     32 C           2.0000   -1.3979    0.0000 C.3     1  UNL1        0.0368
     33 H           9.9254    2.0365    0.0000 H       1  UNL1        0.0312
     34 H           8.1305   -0.7682    0.0000 H       1  UNL1        0.0351
     35 H           8.7465   -0.8533    0.0000 H       1  UNL1        0.0271
     36 H           9.5447   -0.8626    0.0000 H       1  UNL1        0.0271
     37 H          11.2053    2.3580    0.0000 H       1  UNL1        0.0309
     38 H          10.2662   -0.4534    0.0000 H       1  UNL1        0.0271
     39 H          10.6680    0.2364    0.0000 H       1  UNL1        0.0271
     40 H           9.3573    3.3197    0.0000 H       1  UNL1        0.0268
     41 H           8.7443    2.7610    0.0000 H       1  UNL1        0.0268
     42 H           7.7897    2.1261    0.0000 H       1  UNL1        0.0313
     43 H           6.9926    2.1261    0.0000 H       1  UNL1        0.0313
     44 H          10.9784    3.0113    0.0000 H       1  UNL1        0.0268
     45 H          10.2568    3.4205    0.0000 H       1  UNL1        0.0268
     46 H           5.6104   -2.2473    0.0000 H       1  UNL1        0.0315
     47 H           7.6252   -1.9708    0.0000 H       1  UNL1        0.0271
     48 H           8.0164   -1.2749    0.0000 H       1  UNL1        0.0271
     49 H           8.8772    2.1511    0.0000 H       1  UNL1        0.0235
     50 H           8.2572    2.7711    0.0000 H       1  UNL1        0.0235
     51 H           7.6372    2.1511    0.0000 H       1  UNL1        0.0235
     52 H           7.6372   -0.8489    0.0000 H       1  UNL1        0.0235
     53 H           8.2572   -1.4689    0.0000 H       1  UNL1        0.0235
     54 H           8.8772   -0.8489    0.0000 H       1  UNL1        0.0235
     55 H           6.1119   -2.3941    0.0000 H       1  UNL1        0.0269
     56 H           6.9101   -2.3910    0.0000 H       1  UNL1        0.0269
     57 H           5.9882    1.4611    0.0000 H       1  UNL1        0.0572
     58 H          10.6212    0.1393    0.0000 H       1  UNL1        0.0235
     59 H          11.4663    0.3728    0.0000 H       1  UNL1        0.0235
     60 H          11.2329    1.2179    0.0000 H       1  UNL1        0.0235
     61 H          11.3891    1.2094    0.0000 H       1  UNL1        0.0298
     62 H           5.0965    0.6750    0.0000 H       1  UNL1        0.0274
     63 H           4.2984    0.6904    0.0000 H       1  UNL1        0.0274
     64 H           3.7308   -2.0246    0.0000 H       1  UNL1        0.0601
     65 H           6.2428    0.6395    0.0000 H       1  UNL1        0.0238
     66 H           5.6276    1.2642    0.0000 H       1  UNL1        0.0238
     67 H           5.0028    0.6490    0.0000 H       1  UNL1        0.0238
     68 H           3.5358    0.2657    0.0000 H       1  UNL1        0.0291
     69 H           3.1288   -0.4210    0.0000 H       1  UNL1        0.0291
     70 H           3.6369   -2.5071    0.0000 H       1  UNL1        0.0236
     71 H           3.8671   -3.3531    0.0000 H       1  UNL1        0.0236
     72 H           4.7131   -3.1229    0.0000 H       1  UNL1        0.0236
     73 H           4.6393   -3.1232    0.0000 H       1  UNL1        0.0236
     74 H           5.4871   -3.3469    0.0000 H       1  UNL1        0.0236
     75 H           5.7107   -2.4991    0.0000 H       1  UNL1        0.0236
     76 H          12.9263    2.0130    0.0000 H       1  UNL1        0.0232
     77 H          12.8722    2.8881    0.0000 H       1  UNL1        0.0232
     78 H          11.9970    2.8340    0.0000 H       1  UNL1        0.0232
     79 H          11.5297    0.5288    0.0000 H       1  UNL1        0.0232
     80 H          12.3147    0.1381    0.0000 H       1  UNL1        0.0232
     81 H          12.7054    0.9231    0.0000 H       1  UNL1        0.0232
     82 H           2.3121   -0.8621    0.0000 H       1  UNL1        0.0524
     83 H           1.4643   -1.0858    0.0000 H       1  UNL1        0.0524
     84 H           1.6879   -1.9336    0.0000 H       1  UNL1        0.0524
@<TRIPOS>BOND
     1    25     1    1
     2     1    32    1
     3     2     3    1
     4     2     4    1
     5     2    11    1
     6     2    17    1
     7     3     6    1
     8     3     7    1
     9     3    18    1
    10     4     5    1
    11     4    10    1
    12     4    33    1
    13     5     8    1
    14     5     9    1
    15     5    21    1
    16     6    13    1
    17     6    16    1
    18     6    34    1
    19     7     9    1
    20     7    35    1
    21     7    36    1
    22     8    14    1
    23     8    23    1
    24     8    37    1
    25     9    38    1
    26     9    39    1
    27    10    14    1
    28    10    40    1
    29    10    41    1
    30    11    20    1
    31    11    42    1
    32    11    43    1
    33    12    13    1
    34    12    15    1
    35    12    24    1
    36    12    26    1
    37    13    20    2
    38    14    44    1
    39    14    45    1
    40    15    19    1
    41    15    22    1
    42    15    46    1
    43    16    19    1
    44    16    47    1
    45    16    48    1
    46    17    49    1
    47    17    50    1
    48    17    51    1
    49    18    52    1
    50    18    53    1
    51    18    54    1
    52    19    55    1
    53    19    56    1
    54    20    57    1
    55    21    58    1
    56    21    59    1
    57    21    60    1
    58    22    25    1
    59    22    28    1
    60    22    29    1
    61    23    30    1
    62    23    31    1
    63    23    61    1
    64    24    27    1
    65    24    62    1
    66    24    63    1
    67    25    27    1
    68    25    64    1
    69    26    65    1
    70    26    66    1
    71    26    67    1
    72    27    68    1
    73    27    69    1
    74    28    70    1
    75    28    71    1
    76    28    72    1
    77    29    73    1
    78    29    74    1
    79    29    75    1
    80    30    76    1
    81    30    77    1
    82    30    78    1
    83    31    79    1
    84    31    80    1
    85    31    81    1
    86    32    82    1
    87    32    83    1
    88    32    84    1
