@<TRIPOS>MOLECULE
IMPHY015824
 21 20 0 0 0
SMALL
GASTEIGER

@<TRIPOS>ATOM
      1 O           2.5369   -0.4330    0.0000 O.3     1  UNL1       -0.3886
      2 O           6.0010    0.5670    0.0000 O.3     1  UNL1       -0.4679
      3 O           5.1350   -0.9330    0.0000 O.2     1  UNL1       -0.2508
      4 C           3.4030    0.0670    0.0000 C.3     1  UNL1        0.0706
      5 C           4.2690    0.5670    0.0000 C.3     1  UNL1        0.0732
      6 C           2.9030    0.9330    0.0000 C.3     1  UNL1       -0.0358
      7 C           3.9030   -0.7990    0.0000 C.3     1  UNL1       -0.0358
      8 C           5.1350    0.0670    0.0000 C.2     1  UNL1        0.3096
      9 C           6.8671    0.0670    0.0000 C.3     1  UNL1        0.0817
     10 H           4.6675    1.0419    0.0000 H       1  UNL1        0.0406
     11 H           3.8705    1.0419    0.0000 H       1  UNL1        0.0406
     12 H           3.4399    1.2430    0.0000 H       1  UNL1        0.0257
     13 H           2.5930    1.4700    0.0000 H       1  UNL1        0.0257
     14 H           2.3660    0.6230    0.0000 H       1  UNL1        0.0257
     15 H           3.3660   -1.1090    0.0000 H       1  UNL1        0.0257
     16 H           4.2130   -1.3360    0.0000 H       1  UNL1        0.0257
     17 H           4.4399   -0.4890    0.0000 H       1  UNL1        0.0257
     18 H           2.0000   -0.1230    0.0000 H       1  UNL1        0.2102
     19 H           6.5571   -0.4699    0.0000 H       1  UNL1        0.0661
     20 H           7.4040   -0.2430    0.0000 H       1  UNL1        0.0661
     21 H           7.1771    0.6039    0.0000 H       1  UNL1        0.0661
@<TRIPOS>BOND
     1     1     4    1
     2     1    18    1
     3     2     8    1
     4     2     9    1
     5     3     8    2
     6     4     5    1
     7     4     6    1
     8     4     7    1
     9     5     8    1
    10     5    10    1
    11     5    11    1
    12     6    12    1
    13     6    13    1
    14     6    14    1
    15     7    15    1
    16     7    16    1
    17     7    17    1
    18     9    19    1
    19     9    20    1
    20     9    21    1
