@<TRIPOS>MOLECULE
IMPHY004250
 42 45 0 0 0
SMALL
GASTEIGER

@<TRIPOS>ATOM
      1 O           4.8885    0.9167    0.0000 O.3     1  UNL1       -0.4836
      2 O           7.6534    2.7856    0.0000 O.3     1  UNL1       -0.3876
      3 O           2.8660   -0.0853    0.0000 O.3     1  UNL1       -0.4914
      4 N           7.2255   -1.9881    0.0000 N.3     1  UNL1       -0.3011
      5 C           6.2493    0.0390    0.0000 C.3     1  UNL1        0.0558
      6 C           5.7341    0.9612    0.0000 C.3     1  UNL1        0.1161
      7 C           5.4664   -0.5853    0.0000 C.ar    1  UNL1        0.0158
      8 C           7.2255   -0.1838    0.0000 C.3     1  UNL1       -0.0235
      9 C           6.1939    1.8507    0.0000 C.3     1  UNL1        0.0151
     10 C           7.2748    0.1648    0.0000 C.2     1  UNL1       -0.0715
     11 C           4.5992   -0.0846    0.0000 C.ar    1  UNL1        0.1667
     12 C           7.6600   -1.0860    0.0000 C.3     1  UNL1        0.0001
     13 C           5.4664   -1.5866    0.0000 C.ar    1  UNL1       -0.0255
     14 C           7.1942    1.8973    0.0000 C.3     1  UNL1        0.0768
     15 C           6.2493   -2.2110    0.0000 C.3     1  UNL1        0.0242
     16 C           7.7346    1.0543    0.0000 C.2     1  UNL1       -0.0588
     17 C           3.7320   -0.5853    0.0000 C.ar    1  UNL1        0.1618
     18 C           4.5992   -2.0873    0.0000 C.ar    1  UNL1       -0.0534
     19 C           3.7320   -1.5866    0.0000 C.ar    1  UNL1       -0.0160
     20 C           7.7889   -2.8144    0.0000 C.3     1  UNL1       -0.0124
     21 C           2.0000   -0.5853    0.0000 C.3     1  UNL1        0.0790
     22 H           5.2732    1.6754    0.0000 H       1  UNL1        0.0746
     23 H           7.8300   -0.0458    0.0000 H       1  UNL1        0.0290
     24 H           7.2255    0.4362    0.0000 H       1  UNL1        0.0290
     25 H           6.2731    2.4657    0.0000 H       1  UNL1        0.0329
     26 H           5.6021    2.0355    0.0000 H       1  UNL1        0.0329
     27 H           7.6288   -0.3442    0.0000 H       1  UNL1        0.0580
     28 H           8.1447   -1.4725    0.0000 H       1  UNL1        0.0427
     29 H           8.1447   -0.6994    0.0000 H       1  UNL1        0.0427
     30 H           6.8596    2.4192    0.0000 H       1  UNL1        0.0639
     31 H           5.7646   -2.5975    0.0000 H       1  UNL1        0.0476
     32 H           6.5183   -2.7696    0.0000 H       1  UNL1        0.0476
     33 H           8.3539    1.0831    0.0000 H       1  UNL1        0.0595
     34 H           4.5992   -2.7073    0.0000 H       1  UNL1        0.0622
     35 H           3.1951   -1.8966    0.0000 H       1  UNL1        0.0655
     36 H           7.2766   -3.1636    0.0000 H       1  UNL1        0.0391
     37 H           8.1381   -3.3266    0.0000 H       1  UNL1        0.0391
     38 H           8.3011   -2.4651    0.0000 H       1  UNL1        0.0391
     39 H           8.2728    2.8144    0.0000 H       1  UNL1        0.2102
     40 H           1.6900   -0.0483    0.0000 H       1  UNL1        0.0660
     41 H           1.4631   -0.8953    0.0000 H       1  UNL1        0.0660
     42 H           2.3100   -1.1222    0.0000 H       1  UNL1        0.0660
@<TRIPOS>BOND
     1     1     6    1
     2     1    11    1
     3    14     2    1
     4     2    39    1
     5     3    17    1
     6     3    21    1
     7     4    12    1
     8     4    15    1
     9     4    20    1
    10     5     6    1
    11     5     7    1
    12     5     8    1
    13     5    10    1
    14     6     9    1
    15     6    22    1
    16     7    11   ar
    17     7    13   ar
    18     8    12    1
    19     8    23    1
    20     8    24    1
    21     9    14    1
    22     9    25    1
    23     9    26    1
    24    10    16    2
    25    10    27    1
    26    11    17   ar
    27    12    28    1
    28    12    29    1
    29    13    15    1
    30    13    18   ar
    31    14    16    1
    32    14    30    1
    33    15    31    1
    34    15    32    1
    35    16    33    1
    36    17    19   ar
    37    18    19   ar
    38    18    34    1
    39    19    35    1
    40    20    36    1
    41    20    37    1
    42    20    38    1
    43    21    40    1
    44    21    41    1
    45    21    42    1
