@<TRIPOS>MOLECULE
IMPHY000970
 38 40 0 0 0
SMALL
GASTEIGER

@<TRIPOS>ATOM
      1 O           4.3211    1.0597    0.0000 O.2     1  UNL1       -0.2897
      2 N           6.7094   -0.1488    0.0000 N.2     1  UNL1       -0.2806
      3 N           4.6783   -2.2446    0.0000 N.ar    1  UNL1       -0.3600
      4 C           6.3758    1.4344    0.0000 C.3     1  UNL1        0.0202
      5 C           5.9674    0.5216    0.0000 C.3     1  UNL1        0.1222
      6 C           7.3701    1.3282    0.0000 C.3     1  UNL1       -0.0038
      7 C           7.5763    0.3497    0.0000 C.2     1  UNL1        0.0122
      8 C           5.4629    1.8428    0.0000 C.3     1  UNL1       -0.0534
      9 C           4.9889    0.3154    0.0000 C.2     1  UNL1        0.1902
     10 C           6.4820    2.4288    0.0000 C.2     1  UNL1       -0.0824
     11 C           4.6783   -0.6351    0.0000 C.ar    1  UNL1        0.0446
     12 C           8.4892   -0.0586    0.0000 C.3     1  UNL1       -0.0266
     13 C           3.7320   -0.9399    0.0000 C.ar    1  UNL1        0.0102
     14 C           5.2619   -1.4399    0.0000 C.ar    1  UNL1        0.0133
     15 C           7.3962    2.8339    0.0000 C.2     1  UNL1       -0.1020
     16 C           3.7320   -1.9399    0.0000 C.ar    1  UNL1        0.0472
     17 C           2.8660   -0.4399    0.0000 C.ar    1  UNL1       -0.0519
     18 C           2.8660   -2.4399    0.0000 C.ar    1  UNL1       -0.0378
     19 C           2.0000   -0.9399    0.0000 C.ar    1  UNL1       -0.0611
     20 C           2.0000   -1.9399    0.0000 C.ar    1  UNL1       -0.0598
     21 H           5.8059   -0.0770    0.0000 H       1  UNL1        0.0636
     22 H           7.9868    1.3919    0.0000 H       1  UNL1        0.0334
     23 H           7.3712    1.9482    0.0000 H       1  UNL1        0.0334
     24 H           5.7161    2.4087    0.0000 H       1  UNL1        0.0239
     25 H           4.8970    2.0959    0.0000 H       1  UNL1        0.0239
     26 H           5.2098    1.2768    0.0000 H       1  UNL1        0.0239
     27 H           5.9810    2.7941    0.0000 H       1  UNL1        0.0573
     28 H           8.2360   -0.6246    0.0000 H       1  UNL1        0.0289
     29 H           9.0551   -0.3118    0.0000 H       1  UNL1        0.0289
     30 H           8.7423    0.5073    0.0000 H       1  UNL1        0.0289
     31 H           5.8819   -1.4399    0.0000 H       1  UNL1        0.0814
     32 H           7.8972    2.4686    0.0000 H       1  UNL1        0.0532
     33 H           7.4621    3.4504    0.0000 H       1  UNL1        0.0532
     34 H           4.8709   -2.8339    0.0000 H       1  UNL1        0.1654
     35 H           2.8660    0.1801    0.0000 H       1  UNL1        0.0624
     36 H           2.8660   -3.0599    0.0000 H       1  UNL1        0.0638
     37 H           1.4631   -0.6299    0.0000 H       1  UNL1        0.0618
     38 H           1.4631   -2.2499    0.0000 H       1  UNL1        0.0618
@<TRIPOS>BOND
     1     1     9    2
     2     2     5    1
     3     2     7    2
     4     3    14   ar
     5     3    16   ar
     6     3    34    1
     7     4     5    1
     8     4     6    1
     9     4     8    1
    10     4    10    1
    11     5     9    1
    12     5    21    1
    13     6     7    1
    14     6    22    1
    15     6    23    1
    16     7    12    1
    17     8    24    1
    18     8    25    1
    19     8    26    1
    20     9    11    1
    21    10    15    2
    22    10    27    1
    23    11    13   ar
    24    11    14   ar
    25    12    28    1
    26    12    29    1
    27    12    30    1
    28    13    16   ar
    29    13    17   ar
    30    14    31    1
    31    15    32    1
    32    15    33    1
    33    16    18   ar
    34    17    19   ar
    35    17    35    1
    36    18    20   ar
    37    18    36    1
    38    19    20   ar
    39    19    37    1
    40    20    38    1
