@<TRIPOS>MOLECULE
IMPHY016941
 28 29 0 0 0
SMALL
GASTEIGER

@<TRIPOS>ATOM
      1 O           2.0000   -2.8579    0.0000 O.2     1  UNL1       -0.2968
      2 O           3.3175    2.3210    0.0000 O.3     1  UNL1       -0.3947
      3 C           3.7953   -1.3596    0.0000 C.3     1  UNL1        0.0367
      4 C           5.1943   -1.3508    0.0000 C.3     1  UNL1       -0.0189
      5 C           4.0541   -0.3937    0.0000 C.3     1  UNL1       -0.0225
      6 C           3.3175    0.5889    0.0000 C.3     1  UNL1       -0.0015
      7 C           2.0806   -1.0119    0.0000 C.3     1  UNL1        0.0101
      8 C           2.4226   -1.9516    0.0000 C.2     1  UNL1        0.1403
      9 C           3.5365   -2.3255    0.0000 C.3     1  UNL1       -0.0520
     10 C           6.0603   -0.8508    0.0000 C.3     1  UNL1       -0.0586
     11 C           5.6943   -2.2168    0.0000 C.3     1  UNL1       -0.0586
     12 C           2.8175    1.4550    0.0000 C.3     1  UNL1        0.0482
     13 H           4.5044    0.0325    0.0000 H       1  UNL1        0.0314
     14 H           3.8350    0.9305    0.0000 H       1  UNL1        0.0335
     15 H           1.8863   -0.4232    0.0000 H       1  UNL1        0.0345
     16 H           1.4948   -1.2151    0.0000 H       1  UNL1        0.0345
     17 H           2.9376   -2.1651    0.0000 H       1  UNL1        0.0239
     18 H           3.3760   -2.9244    0.0000 H       1  UNL1        0.0239
     19 H           4.1354   -2.4860    0.0000 H       1  UNL1        0.0239
     20 H           6.3703   -1.3877    0.0000 H       1  UNL1        0.0235
     21 H           6.5972   -0.5408    0.0000 H       1  UNL1        0.0235
     22 H           5.7503   -0.3138    0.0000 H       1  UNL1        0.0235
     23 H           5.1573   -2.5268    0.0000 H       1  UNL1        0.0235
     24 H           6.0043   -2.7537    0.0000 H       1  UNL1        0.0235
     25 H           6.2312   -1.9068    0.0000 H       1  UNL1        0.0235
     26 H           2.3426    1.8535    0.0000 H       1  UNL1        0.0560
     27 H           2.3426    1.0564    0.0000 H       1  UNL1        0.0560
     28 H           3.0075    2.8579    0.0000 H       1  UNL1        0.2094
@<TRIPOS>BOND
     1     1     8    2
     2     2    12    1
     3     2    28    1
     4     3     4    1
     5     3     6    1
     6     3     8    1
     7     3     9    1
     8     4     5    1
     9     4    10    1
    10     4    11    1
    11     5     6    1
    12     5     7    1
    13     5    13    1
    14     6    12    1
    15     6    14    1
    16     7     8    1
    17     7    15    1
    18     7    16    1
    19     9    17    1
    20     9    18    1
    21     9    19    1
    22    10    20    1
    23    10    21    1
    24    10    22    1
    25    11    23    1
    26    11    24    1
    27    11    25    1
    28    12    26    1
    29    12    27    1
