@<TRIPOS>MOLECULE
IMPHY000799
 112 111 0 0 0
SMALL
GASTEIGER

@<TRIPOS>ATOM
      1 O          17.5885    2.0000    0.0000 O.3     1  UNL1       -0.4579
      2 O          20.1865    1.5000    0.0000 O.3     1  UNL1       -0.4579
      3 O          16.7224    0.5000    0.0000 O.2     1  UNL1       -0.2508
      4 O          21.0526    3.0000    0.0000 O.2     1  UNL1       -0.2508
      5 C          12.3923    2.0000    0.0000 C.3     1  UNL1       -0.0531
      6 C          11.5263    1.5000    0.0000 C.3     1  UNL1       -0.0530
      7 C          13.2583    1.5000    0.0000 C.3     1  UNL1       -0.0530
      8 C          10.6603    2.0000    0.0000 C.3     1  UNL1       -0.0528
      9 C          14.1244    2.0000    0.0000 C.3     1  UNL1       -0.0526
     10 C           9.7942    1.5000    0.0000 C.3     1  UNL1       -0.0496
     11 C          14.9904    1.5000    0.0000 C.3     1  UNL1       -0.0430
     12 C          24.5167    2.0000    0.0000 C.3     1  UNL1       -0.0530
     13 C          25.3827    1.5000    0.0000 C.3     1  UNL1       -0.0528
     14 C          23.6506    1.5000    0.0000 C.3     1  UNL1       -0.0526
     15 C           8.9282    2.0000    0.0000 C.3     1  UNL1       -0.0348
     16 C          15.8564    2.0000    0.0000 C.3     1  UNL1        0.0450
     17 C          26.2487    2.0000    0.0000 C.3     1  UNL1       -0.0496
     18 C          22.7846    2.0000    0.0000 C.3     1  UNL1       -0.0430
     19 C          21.9186    1.5000    0.0000 C.3     1  UNL1        0.0450
     20 C          27.1147    1.5000    0.0000 C.3     1  UNL1       -0.0348
     21 C          18.4545    1.5000    0.0000 C.3     1  UNL1        0.1367
     22 C          19.3205    2.0000    0.0000 C.3     1  UNL1        0.1367
     23 C           8.0622    1.5000    0.0000 C.2     1  UNL1       -0.0879
     24 C          16.7224    1.5000    0.0000 C.2     1  UNL1        0.3074
     25 C           5.4641    2.0000    0.0000 C.3     1  UNL1       -0.0496
     26 C           6.3301    1.5000    0.0000 C.3     1  UNL1       -0.0348
     27 C           4.5981    1.5000    0.0000 C.3     1  UNL1       -0.0528
     28 C          29.7128    0.0000    0.0000 C.3     1  UNL1       -0.0496
     29 C           7.1962    2.0000    0.0000 C.2     1  UNL1       -0.0879
     30 C          29.7128   -1.0000    0.0000 C.3     1  UNL1       -0.0528
     31 C          28.8468    0.5000    0.0000 C.3     1  UNL1       -0.0348
     32 C          21.0526    2.0000    0.0000 C.2     1  UNL1        0.3074
     33 C          27.9808    2.0000    0.0000 C.2     1  UNL1       -0.0879
     34 C           3.7320    2.0000    0.0000 C.3     1  UNL1       -0.0533
     35 C          30.5788   -1.5000    0.0000 C.3     1  UNL1       -0.0533
     36 C          18.4545    0.5000    0.0000 C.3     1  UNL1       -0.0242
     37 C          19.3205    3.0000    0.0000 C.3     1  UNL1       -0.0242
     38 C          28.8468    1.5000    0.0000 C.2     1  UNL1       -0.0879
     39 C           2.8660    1.5000    0.0000 C.3     1  UNL1       -0.0559
     40 C          30.5788   -2.5000    0.0000 C.3     1  UNL1       -0.0559
     41 C           2.0000    2.0000    0.0000 C.3     1  UNL1       -0.0653
     42 C          31.4449   -3.0000    0.0000 C.3     1  UNL1       -0.0653
     43 H          12.7908    2.4750    0.0000 H       1  UNL1        0.0265
     44 H          11.9938    2.4750    0.0000 H       1  UNL1        0.0265
     45 H          11.1278    1.0250    0.0000 H       1  UNL1        0.0265
     46 H          11.9248    1.0250    0.0000 H       1  UNL1        0.0265
     47 H          12.8598    1.0250    0.0000 H       1  UNL1        0.0265
     48 H          13.6569    1.0250    0.0000 H       1  UNL1        0.0265
     49 H          11.0588    2.4750    0.0000 H       1  UNL1        0.0265
     50 H          10.2617    2.4750    0.0000 H       1  UNL1        0.0265
     51 H          14.5229    2.4750    0.0000 H       1  UNL1        0.0265
     52 H          13.7258    2.4750    0.0000 H       1  UNL1        0.0265
     53 H           9.3957    1.0250    0.0000 H       1  UNL1        0.0268
     54 H          10.1928    1.0250    0.0000 H       1  UNL1        0.0268
     55 H          14.5919    1.0250    0.0000 H       1  UNL1        0.0270
     56 H          15.3889    1.0250    0.0000 H       1  UNL1        0.0270
     57 H          24.9152    2.4750    0.0000 H       1  UNL1        0.0265
     58 H          24.1181    2.4750    0.0000 H       1  UNL1        0.0265
     59 H          24.9842    1.0250    0.0000 H       1  UNL1        0.0265
     60 H          25.7812    1.0250    0.0000 H       1  UNL1        0.0265
     61 H          23.2521    1.0250    0.0000 H       1  UNL1        0.0265
     62 H          24.0492    1.0250    0.0000 H       1  UNL1        0.0265
     63 H           9.3267    2.4750    0.0000 H       1  UNL1        0.0307
     64 H           8.5297    2.4750    0.0000 H       1  UNL1        0.0307
     65 H          16.2549    2.4750    0.0000 H       1  UNL1        0.0377
     66 H          15.4579    2.4750    0.0000 H       1  UNL1        0.0377
     67 H          26.6472    2.4750    0.0000 H       1  UNL1        0.0268
     68 H          25.8502    2.4750    0.0000 H       1  UNL1        0.0268
     69 H          23.1831    2.4750    0.0000 H       1  UNL1        0.0270
     70 H          22.3861    2.4750    0.0000 H       1  UNL1        0.0270
     71 H          21.5201    1.0250    0.0000 H       1  UNL1        0.0377
     72 H          22.3171    1.0250    0.0000 H       1  UNL1        0.0377
     73 H          26.7162    1.0250    0.0000 H       1  UNL1        0.0307
     74 H          27.5133    1.0250    0.0000 H       1  UNL1        0.0307
     75 H          18.4545    2.1200    0.0000 H       1  UNL1        0.0768
     76 H          19.8574    2.3100    0.0000 H       1  UNL1        0.0768
     77 H           8.0622    0.8800    0.0000 H       1  UNL1        0.0569
     78 H           5.8626    2.4750    0.0000 H       1  UNL1        0.0268
     79 H           5.0656    2.4750    0.0000 H       1  UNL1        0.0268
     80 H           5.9316    1.0250    0.0000 H       1  UNL1        0.0307
     81 H           6.7287    1.0250    0.0000 H       1  UNL1        0.0307
     82 H           4.1996    1.0250    0.0000 H       1  UNL1        0.0265
     83 H           4.9966    1.0250    0.0000 H       1  UNL1        0.0265
     84 H          30.3234   -0.1077    0.0000 H       1  UNL1        0.0268
     85 H          29.9249    0.5826    0.0000 H       1  UNL1        0.0268
     86 H          29.1022   -0.8923    0.0000 H       1  UNL1        0.0265
     87 H          29.5008   -1.5826    0.0000 H       1  UNL1        0.0265
     88 H           7.1962    2.6200    0.0000 H       1  UNL1        0.0569
     89 H          28.2362    0.6077    0.0000 H       1  UNL1        0.0307
     90 H          28.6347   -0.0826    0.0000 H       1  UNL1        0.0307
     91 H          27.9808    2.6200    0.0000 H       1  UNL1        0.0569
     92 H           4.1306    2.4750    0.0000 H       1  UNL1        0.0265
     93 H           3.3335    2.4750    0.0000 H       1  UNL1        0.0265
     94 H          31.1894   -1.6077    0.0000 H       1  UNL1        0.0265
     95 H          30.7909   -0.9174    0.0000 H       1  UNL1        0.0265
     96 H          17.8345    0.5000    0.0000 H       1  UNL1        0.0266
     97 H          18.4545   -0.1200    0.0000 H       1  UNL1        0.0266
     98 H          19.0745    0.5000    0.0000 H       1  UNL1        0.0266
     99 H          19.9405    3.0000    0.0000 H       1  UNL1        0.0266
    100 H          19.3205    3.6200    0.0000 H       1  UNL1        0.0266
    101 H          18.7005    3.0000    0.0000 H       1  UNL1        0.0266
    102 H          29.3837    1.8100    0.0000 H       1  UNL1        0.0569
    103 H           2.4675    1.0250    0.0000 H       1  UNL1        0.0263
    104 H           3.2646    1.0250    0.0000 H       1  UNL1        0.0263
    105 H          29.9683   -2.3923    0.0000 H       1  UNL1        0.0263
    106 H          30.3668   -3.0826    0.0000 H       1  UNL1        0.0263
    107 H           2.3100    2.5369    0.0000 H       1  UNL1        0.0230
    108 H           1.4631    2.3100    0.0000 H       1  UNL1        0.0230
    109 H           1.6900    1.4631    0.0000 H       1  UNL1        0.0230
    110 H          31.1349   -3.5369    0.0000 H       1  UNL1        0.0230
    111 H          31.9818   -3.3100    0.0000 H       1  UNL1        0.0230
    112 H          31.7549   -2.4631    0.0000 H       1  UNL1        0.0230
@<TRIPOS>BOND
     1    21     1    1
     2     1    24    1
     3    22     2    1
     4     2    32    1
     5     3    24    2
     6     4    32    2
     7     5     6    1
     8     5     7    1
     9     5    43    1
    10     5    44    1
    11     6     8    1
    12     6    45    1
    13     6    46    1
    14     7     9    1
    15     7    47    1
    16     7    48    1
    17     8    10    1
    18     8    49    1
    19     8    50    1
    20     9    11    1
    21     9    51    1
    22     9    52    1
    23    10    15    1
    24    10    53    1
    25    10    54    1
    26    11    16    1
    27    11    55    1
    28    11    56    1
    29    12    13    1
    30    12    14    1
    31    12    57    1
    32    12    58    1
    33    13    17    1
    34    13    59    1
    35    13    60    1
    36    14    18    1
    37    14    61    1
    38    14    62    1
    39    15    23    1
    40    15    63    1
    41    15    64    1
    42    16    24    1
    43    16    65    1
    44    16    66    1
    45    17    20    1
    46    17    67    1
    47    17    68    1
    48    18    19    1
    49    18    69    1
    50    18    70    1
    51    19    32    1
    52    19    71    1
    53    19    72    1
    54    20    33    1
    55    20    73    1
    56    20    74    1
    57    21    22    1
    58    21    36    1
    59    21    75    1
    60    22    37    1
    61    22    76    1
    62    23    29    2
    63    23    77    1
    64    25    26    1
    65    25    27    1
    66    25    78    1
    67    25    79    1
    68    26    29    1
    69    26    80    1
    70    26    81    1
    71    27    34    1
    72    27    82    1
    73    27    83    1
    74    28    30    1
    75    28    31    1
    76    28    84    1
    77    28    85    1
    78    29    88    1
    79    30    35    1
    80    30    86    1
    81    30    87    1
    82    31    38    1
    83    31    89    1
    84    31    90    1
    85    33    38    2
    86    33    91    1
    87    34    39    1
    88    34    92    1
    89    34    93    1
    90    35    40    1
    91    35    94    1
    92    35    95    1
    93    36    96    1
    94    36    97    1
    95    36    98    1
    96    37    99    1
    97    37   100    1
    98    37   101    1
    99    38   102    1
   100    39    41    1
   101    39   103    1
   102    39   104    1
   103    40    42    1
   104    40   105    1
   105    40   106    1
   106    41   107    1
   107    41   108    1
   108    41   109    1
   109    42   110    1
   110    42   111    1
   111    42   112    1
