@<TRIPOS>MOLECULE
IMPHY013689
 114 118 0 0 0
SMALL
GASTEIGER

@<TRIPOS>ATOM
      1 O           6.0010    5.4381    0.0000 O.3     1  UNL1       -0.3627
      2 O           3.4030    6.9381    0.0000 O.3     1  UNL1       -0.3865
      3 O           5.1350    7.9381    0.0000 O.3     1  UNL1       -0.3862
      4 O           3.4030    4.9381    0.0000 O.3     1  UNL1       -0.3866
      5 O           4.2690   -9.5619    0.0000 O.3     1  UNL1       -0.3312
      6 O           2.5369  -11.5619    0.0000 O.3     1  UNL1       -0.3865
      7 O           4.2690  -12.5619    0.0000 O.3     1  UNL1       -0.3864
      8 O           6.0089    8.4864    0.0000 O.3     1  UNL1       -0.5054
      9 O           6.0010  -11.5619    0.0000 O.3     1  UNL1       -0.3829
     10 O           7.7788    5.4208    0.0000 O.3     1  UNL1       -0.5062
     11 O           6.0010   -9.5619    0.0000 O.3     1  UNL1       -0.4290
     12 O           4.2690    2.4381    0.0000 O.3     1  UNL1       -0.4305
     13 O           9.5112    8.4968    0.0000 O.2     1  UNL1       -0.4542
     14 O           3.4030    3.9381    0.0000 O.2     1  UNL1       -0.2503
     15 O           2.5369   -8.5619    0.0000 O.3     1  UNL1       -0.3924
     16 O           6.9073    9.9867    0.0000 O.2     1  UNL1       -0.2863
     17 O           5.1350   -8.0619    0.0000 O.2     1  UNL1       -0.2452
     18 O           9.5076   12.5660    0.0000 O.3     1  UNL1       -0.5033
     19 O          11.2854   11.5487    0.0000 O.3     1  UNL1       -0.5032
     20 C           4.2690    6.4381    0.0000 C.3     1  UNL1        0.1120
     21 C           5.1350    6.9381    0.0000 C.3     1  UNL1        0.1139
     22 C           4.2690    5.4381    0.0000 C.3     1  UNL1        0.1101
     23 C           6.0010    6.4381    0.0000 C.3     1  UNL1        0.1192
     24 C           5.1350    4.9381    0.0000 C.3     1  UNL1        0.0979
     25 C           6.8671    6.9381    0.0000 C.ar    1  UNL1        0.0673
     26 C           5.1350    3.9381    0.0000 C.3     1  UNL1        0.0741
     27 C           3.4030  -11.0619    0.0000 C.3     1  UNL1        0.1120
     28 C           4.2690  -11.5619    0.0000 C.3     1  UNL1        0.1152
     29 C           6.8711    7.9797    0.0000 C.ar    1  UNL1        0.1404
     30 C           3.4030  -10.0619    0.0000 C.3     1  UNL1        0.1140
     31 C           5.1350  -11.0619    0.0000 C.3     1  UNL1        0.1455
     32 C           7.7711    6.4208    0.0000 C.ar    1  UNL1        0.1296
     33 C           5.1350  -10.0619    0.0000 C.3     1  UNL1        0.2341
     34 C           4.2690    3.4381    0.0000 C.2     1  UNL1        0.3146
     35 C           7.7791    8.4901    0.0000 C.ar    1  UNL1        0.1064
     36 C           8.6671    6.9520    0.0000 C.ar    1  UNL1        0.0235
     37 C           8.6471    7.9934    0.0000 C.ar    1  UNL1        0.1463
     38 C           2.5369   -9.5619    0.0000 C.3     1  UNL1        0.0731
     39 C           7.7753    9.4901    0.0000 C.ar    1  UNL1        0.2038
     40 C           8.6394    9.9934    0.0000 C.ar    1  UNL1        0.0684
     41 C           9.5073    9.4968    0.0000 C.ar    1  UNL1        0.1430
     42 C           3.4030    1.9381    0.0000 C.2     1  UNL1        0.1057
     43 C           8.6193   11.0349    0.0000 C.ar    1  UNL1       -0.0022
     44 C           6.0010   -8.5619    0.0000 C.2     1  UNL1        0.3371
     45 C          10.4153   10.0071    0.0000 C.ar    1  UNL1        0.0265
     46 C           9.5153   11.5661    0.0000 C.ar    1  UNL1        0.1591
     47 C          10.4194   11.0487    0.0000 C.ar    1  UNL1        0.1618
     48 C           6.8671   -8.0619    0.0000 C.2     1  UNL1        0.0336
     49 C           2.5369    2.4381    0.0000 C.3     1  UNL1       -0.0062
     50 C           3.4030    0.9381    0.0000 C.2     1  UNL1       -0.0237
     51 C           7.7331   -8.5619    0.0000 C.3     1  UNL1       -0.0329
     52 C           6.8671   -7.0619    0.0000 C.2     1  UNL1       -0.0521
     53 C           2.5369    0.4381    0.0000 C.2     1  UNL1       -0.0584
     54 C           6.0010   -6.5619    0.0000 C.2     1  UNL1       -0.0610
     55 C           2.5369   -0.5619    0.0000 C.2     1  UNL1       -0.0587
     56 C           6.0010   -5.5619    0.0000 C.2     1  UNL1       -0.0588
     57 C           3.4030   -1.0619    0.0000 C.2     1  UNL1       -0.0504
     58 C           5.1350   -5.0619    0.0000 C.2     1  UNL1       -0.0504
     59 C           4.2690   -0.5619    0.0000 C.3     1  UNL1       -0.0397
     60 C           3.4030   -2.0619    0.0000 C.2     1  UNL1       -0.0588
     61 C           5.1350   -4.0619    0.0000 C.2     1  UNL1       -0.0588
     62 C           4.2690   -5.5619    0.0000 C.3     1  UNL1       -0.0397
     63 C           4.2690   -2.5619    0.0000 C.2     1  UNL1       -0.0615
     64 C           4.2690   -3.5619    0.0000 C.2     1  UNL1       -0.0615
     65 H           4.2690    7.0581    0.0000 H       1  UNL1        0.0647
     66 H           5.6720    7.2481    0.0000 H       1  UNL1        0.0649
     67 H           4.2690    4.8181    0.0000 H       1  UNL1        0.0646
     68 H           6.5380    6.1281    0.0000 H       1  UNL1        0.0676
     69 H           5.6720    4.6281    0.0000 H       1  UNL1        0.0628
     70 H           5.3471    3.3555    0.0000 H       1  UNL1        0.0404
     71 H           5.7456    4.0458    0.0000 H       1  UNL1        0.0404
     72 H           3.4030  -11.6819    0.0000 H       1  UNL1        0.0647
     73 H           3.7320  -11.8719    0.0000 H       1  UNL1        0.0648
     74 H           2.8660    6.6281    0.0000 H       1  UNL1        0.2100
     75 H           4.5981    8.2481    0.0000 H       1  UNL1        0.2100
     76 H           2.8660    5.2481    0.0000 H       1  UNL1        0.2100
     77 H           3.4030   -9.4419    0.0000 H       1  UNL1        0.0647
     78 H           5.1350  -11.6819    0.0000 H       1  UNL1        0.0683
     79 H           5.1350   -9.4419    0.0000 H       1  UNL1        0.1085
     80 H           9.2088    6.6503    0.0000 H       1  UNL1        0.0691
     81 H           1.9264   -9.4542    0.0000 H       1  UNL1        0.0584
     82 H           2.3249  -10.1445    0.0000 H       1  UNL1        0.0584
     83 H           2.0000  -11.2519    0.0000 H       1  UNL1        0.2100
     84 H           3.7320  -12.8719    0.0000 H       1  UNL1        0.2100
     85 H           6.0137    9.1064    0.0000 H       1  UNL1        0.2922
     86 H           6.5380  -11.2519    0.0000 H       1  UNL1        0.2102
     87 H           8.3182    5.1150    0.0000 H       1  UNL1        0.2922
     88 H           2.0000   -8.2519    0.0000 H       1  UNL1        0.2095
     89 H           8.0776   11.3365    0.0000 H       1  UNL1        0.0663
     90 H          10.9499    9.6930    0.0000 H       1  UNL1        0.0692
     91 H           2.8469    2.9750    0.0000 H       1  UNL1        0.0308
     92 H           2.0000    2.7481    0.0000 H       1  UNL1        0.0308
     93 H           2.2269    1.9012    0.0000 H       1  UNL1        0.0308
     94 H           3.9399    0.6281    0.0000 H       1  UNL1        0.0651
     95 H           7.4231   -9.0988    0.0000 H       1  UNL1        0.0280
     96 H           8.2700   -8.8719    0.0000 H       1  UNL1        0.0280
     97 H           8.0431   -8.0250    0.0000 H       1  UNL1        0.0280
     98 H           7.4040   -6.7519    0.0000 H       1  UNL1        0.0622
     99 H           8.9683   12.8719    0.0000 H       1  UNL1        0.2923
    100 H           2.0000    0.7481    0.0000 H       1  UNL1        0.0619
    101 H          11.8223   11.2387    0.0000 H       1  UNL1        0.2923
    102 H           5.4641   -6.8719    0.0000 H       1  UNL1        0.0618
    103 H           2.0000   -0.8719    0.0000 H       1  UNL1        0.0620
    104 H           6.5380   -5.2519    0.0000 H       1  UNL1        0.0620
    105 H           4.5790   -1.0988    0.0000 H       1  UNL1        0.0278
    106 H           4.8059   -0.2519    0.0000 H       1  UNL1        0.0278
    107 H           3.9590   -0.0249    0.0000 H       1  UNL1        0.0278
    108 H           2.8660   -2.3719    0.0000 H       1  UNL1        0.0620
    109 H           5.6720   -3.7519    0.0000 H       1  UNL1        0.0620
    110 H           3.9590   -5.0249    0.0000 H       1  UNL1        0.0278
    111 H           3.7320   -5.8719    0.0000 H       1  UNL1        0.0278
    112 H           4.5790   -6.0988    0.0000 H       1  UNL1        0.0278
    113 H           4.8059   -2.2519    0.0000 H       1  UNL1        0.0618
    114 H           3.7320   -3.8719    0.0000 H       1  UNL1        0.0618
@<TRIPOS>BOND
     1     1    23    1
     2     1    24    1
     3     2    20    1
     4     2    74    1
     5     3    21    1
     6     3    75    1
     7     4    22    1
     8     4    76    1
     9     5    30    1
    10     5    33    1
    11     6    27    1
    12     6    83    1
    13     7    28    1
    14     7    84    1
    15     8    29    1
    16     8    85    1
    17     9    31    1
    18     9    86    1
    19    10    32    1
    20    10    87    1
    21    11    33    1
    22    11    44    1
    23    12    34    1
    24    12    42    1
    25    13    37   ar
    26    13    41   ar
    27    14    34    2
    28    15    38    1
    29    15    88    1
    30    16    39    2
    31    17    44    2
    32    18    46    1
    33    18    99    1
    34    19    47    1
    35    19   101    1
    36    20    21    1
    37    20    22    1
    38    20    65    1
    39    21    23    1
    40    21    66    1
    41    22    24    1
    42    22    67    1
    43    23    25    1
    44    23    68    1
    45    24    26    1
    46    24    69    1
    47    25    29   ar
    48    25    32   ar
    49    26    34    1
    50    26    70    1
    51    26    71    1
    52    27    28    1
    53    27    30    1
    54    27    72    1
    55    28    31    1
    56    28    73    1
    57    29    35   ar
    58    30    38    1
    59    30    77    1
    60    31    33    1
    61    31    78    1
    62    32    36   ar
    63    33    79    1
    64    35    37   ar
    65    35    39   ar
    66    36    37   ar
    67    36    80    1
    68    38    81    1
    69    38    82    1
    70    39    40   ar
    71    40    41   ar
    72    40    43   ar
    73    41    45   ar
    74    42    49    1
    75    42    50    2
    76    43    46   ar
    77    43    89    1
    78    44    48    1
    79    45    47   ar
    80    45    90    1
    81    46    47   ar
    82    48    51    1
    83    48    52    2
    84    49    91    1
    85    49    92    1
    86    49    93    1
    87    50    53    1
    88    50    94    1
    89    51    95    1
    90    51    96    1
    91    51    97    1
    92    52    54    1
    93    52    98    1
    94    53    55    2
    95    53   100    1
    96    54    56    2
    97    54   102    1
    98    55    57    1
    99    55   103    1
   100    56    58    1
   101    56   104    1
   102    57    59    1
   103    57    60    2
   104    58    61    2
   105    58    62    1
   106    59   105    1
   107    59   106    1
   108    59   107    1
   109    60    63    1
   110    60   108    1
   111    61    64    1
   112    61   109    1
   113    62   110    1
   114    62   111    1
   115    62   112    1
   116    63    64    2
   117    63   113    1
   118    64   114    1
