@<TRIPOS>MOLECULE
IMPHY016366
 17 16 0 0 0
SMALL
GASTEIGER

@<TRIPOS>ATOM
      1 O           2.8660   -1.0600    0.0000 O.2     1  UNL1       -0.2930
      2 C           5.4641    0.4400    0.0000 C.3     1  UNL1       -0.0372
      3 C           4.5981   -0.0600    0.0000 C.2     1  UNL1       -0.0810
      4 C           6.3301   -0.0600    0.0000 C.3     1  UNL1       -0.0618
      5 C           3.7320    0.4400    0.0000 C.2     1  UNL1       -0.0234
      6 C           2.8660   -0.0600    0.0000 C.2     1  UNL1        0.1527
      7 C           2.0000    0.4400    0.0000 C.3     1  UNL1       -0.0020
      8 H           5.8626    0.9149    0.0000 H       1  UNL1        0.0305
      9 H           5.0656    0.9149    0.0000 H       1  UNL1        0.0305
     10 H           4.5981   -0.6800    0.0000 H       1  UNL1        0.0573
     11 H           6.0201   -0.5969    0.0000 H       1  UNL1        0.0233
     12 H           6.8671   -0.3700    0.0000 H       1  UNL1        0.0233
     13 H           6.6401    0.4769    0.0000 H       1  UNL1        0.0233
     14 H           3.7320    1.0600    0.0000 H       1  UNL1        0.0649
     15 H           2.3100    0.9769    0.0000 H       1  UNL1        0.0309
     16 H           1.4631    0.7500    0.0000 H       1  UNL1        0.0309
     17 H           1.6900   -0.0969    0.0000 H       1  UNL1        0.0309
@<TRIPOS>BOND
     1     1     6    2
     2     2     3    1
     3     2     4    1
     4     2     8    1
     5     2     9    1
     6     3     5    2
     7     3    10    1
     8     4    11    1
     9     4    12    1
    10     4    13    1
    11     5     6    1
    12     5    14    1
    13     6     7    1
    14     7    15    1
    15     7    16    1
    16     7    17    1
