@<TRIPOS>MOLECULE
IMPHY006195
 42 43 0 0 0
SMALL
GASTEIGER

@<TRIPOS>ATOM
      1 O           3.7320    3.5000    0.0000 O.2     1  UNL1       -0.4953
      2 O           7.1962    3.5000    0.0000 O.2     1  UNL1       -0.5109
      3 O           2.8660   -1.0000    0.0000 O.3     1  UNL1       -0.4907
      4 O           4.5981   -4.0000    0.0000 O.3     1  UNL1       -0.4913
      5 O           2.8660   -3.0000    0.0000 O.3     1  UNL1       -0.5009
      6 C           5.4641    1.5000    0.0000 C.3     1  UNL1        0.0060
      7 C           6.3301    2.0000    0.0000 C.3     1  UNL1        0.0146
      8 C           4.5981    2.0000    0.0000 C.2     1  UNL1       -0.0349
      9 C           5.4641    0.5000    0.0000 C.2     1  UNL1       -0.0760
     10 C           6.3301    3.0000    0.0000 C.2     1  UNL1        0.0984
     11 C           4.5981    3.0000    0.0000 C.2     1  UNL1        0.1199
     12 C           5.4641    3.5000    0.0000 C.2     1  UNL1        0.0170
     13 C           4.5981    0.0000    0.0000 C.2     1  UNL1       -0.0543
     14 C           4.5981   -1.0000    0.0000 C.ar    1  UNL1        0.0203
     15 C           3.7320   -1.5000    0.0000 C.ar    1  UNL1        0.1721
     16 C           5.4641   -1.5000    0.0000 C.ar    1  UNL1       -0.0474
     17 C           3.7320   -2.5000    0.0000 C.ar    1  UNL1        0.2016
     18 C           4.5981   -3.0000    0.0000 C.ar    1  UNL1        0.1650
     19 C           5.4641   -2.5000    0.0000 C.ar    1  UNL1       -0.0155
     20 C           3.7320    4.5000    0.0000 C.3     1  UNL1        0.0788
     21 C           2.0000   -1.5000    0.0000 C.3     1  UNL1        0.0790
     22 C           5.4641   -4.5000    0.0000 C.3     1  UNL1        0.0790
     23 H           6.2002    1.0750    0.0000 H       1  UNL1        0.0391
     24 H           6.5422    1.4174    0.0000 H       1  UNL1        0.0352
     25 H           6.9407    2.1077    0.0000 H       1  UNL1        0.0352
     26 H           4.0611    1.6900    0.0000 H       1  UNL1        0.0614
     27 H           6.0010    0.1900    0.0000 H       1  UNL1        0.0578
     28 H           5.4641    4.1200    0.0000 H       1  UNL1        0.0687
     29 H           4.0611    0.3100    0.0000 H       1  UNL1        0.0622
     30 H           6.0010   -1.1900    0.0000 H       1  UNL1        0.0626
     31 H           6.0010   -2.8100    0.0000 H       1  UNL1        0.0655
     32 H           7.1962    4.1200    0.0000 H       1  UNL1        0.2916
     33 H           4.3520    4.5000    0.0000 H       1  UNL1        0.0660
     34 H           3.7320    5.1200    0.0000 H       1  UNL1        0.0660
     35 H           3.1120    4.5000    0.0000 H       1  UNL1        0.0660
     36 H           2.8660   -3.6200    0.0000 H       1  UNL1        0.2924
     37 H           1.6900   -0.9631    0.0000 H       1  UNL1        0.0660
     38 H           1.4631   -1.8100    0.0000 H       1  UNL1        0.0660
     39 H           2.3100   -2.0369    0.0000 H       1  UNL1        0.0660
     40 H           5.1541   -5.0369    0.0000 H       1  UNL1        0.0660
     41 H           6.0010   -4.8100    0.0000 H       1  UNL1        0.0660
     42 H           5.7741   -3.9631    0.0000 H       1  UNL1        0.0660
@<TRIPOS>BOND
     1     1    11    1
     2     1    20    1
     3     2    10    1
     4     2    32    1
     5     3    15    1
     6     3    21    1
     7     4    18    1
     8     4    22    1
     9     5    17    1
    10     5    36    1
    11     6     7    1
    12     6     8    1
    13     6     9    1
    14     6    23    1
    15     7    10    1
    16     7    24    1
    17     7    25    1
    18     8    11    2
    19     8    26    1
    20     9    13    2
    21     9    27    1
    22    10    12    2
    23    11    12    1
    24    12    28    1
    25    13    14    1
    26    13    29    1
    27    14    15   ar
    28    14    16   ar
    29    15    17   ar
    30    16    19   ar
    31    16    30    1
    32    17    18   ar
    33    18    19   ar
    34    19    31    1
    35    20    33    1
    36    20    34    1
    37    20    35    1
    38    21    37    1
    39    21    38    1
    40    21    39    1
    41    22    40    1
    42    22    41    1
    43    22    42    1
