@<TRIPOS>MOLECULE
IMPHY007129
 16 17 0 0 0
SMALL
GASTEIGER

@<TRIPOS>ATOM
      1 O           6.0812    0.8047    0.0000 O.3     1  UNL1       -0.4525
      2 O           6.0812   -0.8047    0.0000 O.3     1  UNL1       -0.4526
      3 O           2.5369    1.0000    0.0000 O.3     1  UNL1       -0.5066
      4 C           5.1350    0.5000    0.0000 C.ar    1  UNL1        0.1697
      5 C           5.1350   -0.5000    0.0000 C.ar    1  UNL1        0.1665
      6 C           6.6648    0.0000    0.0000 C.3     1  UNL1        0.2332
      7 C           4.2690    1.0000    0.0000 C.ar    1  UNL1        0.0253
      8 C           4.2690   -1.0000    0.0000 C.ar    1  UNL1       -0.0127
      9 C           3.4030    0.5000    0.0000 C.ar    1  UNL1        0.1206
     10 C           3.4030   -0.5000    0.0000 C.ar    1  UNL1       -0.0165
     11 H           7.1257   -0.4147    0.0000 H       1  UNL1        0.1166
     12 H           7.1257    0.4147    0.0000 H       1  UNL1        0.1166
     13 H           4.2690    1.6200    0.0000 H       1  UNL1        0.0692
     14 H           4.2690   -1.6200    0.0000 H       1  UNL1        0.0656
     15 H           2.8660   -0.8100    0.0000 H       1  UNL1        0.0655
     16 H           2.0000    0.6900    0.0000 H       1  UNL1        0.2921
@<TRIPOS>BOND
     1     1     4    1
     2     1     6    1
     3     2     5    1
     4     2     6    1
     5     3     9    1
     6     3    16    1
     7     4     5   ar
     8     4     7   ar
     9     5     8   ar
    10     6    11    1
    11     6    12    1
    12     7     9   ar
    13     7    13    1
    14     8    10   ar
    15     8    14    1
    16     9    10   ar
    17    10    15    1
