@<TRIPOS>MOLECULE
IMPHY002317
 80 85 0 0 0
SMALL
GASTEIGER

@<TRIPOS>ATOM
      1 O           7.2328   -1.2755    0.0000 O.3     1  UNL1       -0.4573
      2 O           5.2694   -0.8274    0.0000 O.3     1  UNL1       -0.3870
      3 O           2.6127    4.6677    0.0000 O.3     1  UNL1       -0.3912
      4 O           7.7921   -2.8739    0.0000 O.2     1  UNL1       -0.2501
      5 C           5.2438    0.4817    0.0000 C.3     1  UNL1       -0.0159
      6 C           5.6093   -0.4937    0.0000 C.3     1  UNL1        0.0343
      7 C           4.2150    0.6449    0.0000 C.3     1  UNL1       -0.0256
      8 C           3.8108    1.6518    0.0000 C.3     1  UNL1       -0.0250
      9 C           4.4873    2.5001    0.0000 C.3     1  UNL1       -0.0278
     10 C           6.1093   -2.6843    0.0000 C.3     1  UNL1        0.1034
     11 C           6.6093   -0.4937    0.0000 C.3     1  UNL1        0.1393
     12 C           4.9858   -1.2755    0.0000 C.2     1  UNL1       -0.0592
     13 C           5.2083   -2.2504    0.0000 C.3     1  UNL1       -0.0005
     14 C           5.9397    1.3141    0.0000 C.3     1  UNL1       -0.0461
     15 C           6.0025   -1.5076    0.0000 C.3     1  UNL1        0.1091
     16 C           5.5589    2.3301    0.0000 C.3     1  UNL1       -0.0486
     17 C           3.5655   -0.1695    0.0000 C.3     1  UNL1       -0.0306
     18 C           4.0907    3.5584    0.0000 C.3     1  UNL1       -0.0056
     19 C           2.6908    1.8030    0.0000 C.3     1  UNL1       -0.0447
     20 C           6.1373   -0.2422    0.0000 C.3     1  UNL1       -0.0584
     21 C           3.9536   -1.1362    0.0000 C.2     1  UNL1       -0.0835
     22 C           5.9278    0.4542    0.0000 C.3     1  UNL1       -0.0518
     23 C           4.3388   -2.8239    0.0000 C.3     1  UNL1       -0.0402
     24 C           6.2032   -3.7217    0.0000 C.3     1  UNL1       -0.0336
     25 C           3.1873    0.8700    0.0000 C.3     1  UNL1       -0.0590
     26 C           2.9745    3.7354    0.0000 C.3     1  UNL1        0.0606
     27 C           4.4086   -3.8632    0.0000 C.3     1  UNL1       -0.0343
     28 C           7.0103   -2.2504    0.0000 C.2     1  UNL1        0.3169
     29 C           2.2698    2.8518    0.0000 C.3     1  UNL1       -0.0258
     30 C           5.3471   -4.3151    0.0000 C.3     1  UNL1       -0.0467
     31 C           4.2511    4.5454    0.0000 C.3     1  UNL1       -0.0572
     32 C           5.0257    3.9129    0.0000 C.3     1  UNL1       -0.0572
     33 C           3.9712   -4.7624    0.0000 C.3     1  UNL1       -0.0598
     34 C           3.4111   -3.9340    0.0000 C.3     1  UNL1       -0.0598
     35 H           3.3740    0.7683    0.0000 H       1  UNL1        0.0315
     36 H           5.0249    3.1585    0.0000 H       1  UNL1        0.0312
     37 H           6.7984    0.3350    0.0000 H       1  UNL1        0.0769
     38 H           4.4425   -1.8816    0.0000 H       1  UNL1        0.0357
     39 H           6.3403    0.8409    0.0000 H       1  UNL1        0.0271
     40 H           6.4744    1.6278    0.0000 H       1  UNL1        0.0271
     41 H           5.4460   -1.7810    0.0000 H       1  UNL1        0.0642
     42 H           6.1681    2.4451    0.0000 H       1  UNL1        0.0268
     43 H           5.5498    2.9500    0.0000 H       1  UNL1        0.0268
     44 H           3.1541    0.2943    0.0000 H       1  UNL1        0.0310
     45 H           3.0382   -0.4955    0.0000 H       1  UNL1        0.0310
     46 H           2.0844    1.6739    0.0000 H       1  UNL1        0.0271
     47 H           2.7142    1.1834    0.0000 H       1  UNL1        0.0271
     48 H           5.7470   -0.7240    0.0000 H       1  UNL1        0.0235
     49 H           6.6190   -0.6325    0.0000 H       1  UNL1        0.0235
     50 H           6.5276    0.2395    0.0000 H       1  UNL1        0.0235
     51 H           3.5726   -1.6253    0.0000 H       1  UNL1        0.0572
     52 H           6.5155    0.2568    0.0000 H       1  UNL1        0.0239
     53 H           6.1253    1.0420    0.0000 H       1  UNL1        0.0239
     54 H           5.3401    0.6517    0.0000 H       1  UNL1        0.0239
     55 H           4.0910   -2.2555    0.0000 H       1  UNL1        0.0276
     56 H           3.7364   -2.9707    0.0000 H       1  UNL1        0.0276
     57 H           6.4640   -4.2842    0.0000 H       1  UNL1        0.0277
     58 H           6.8020   -3.5610    0.0000 H       1  UNL1        0.0277
     59 H           2.7026    1.2565    0.0000 H       1  UNL1        0.0235
     60 H           2.8008    0.3852    0.0000 H       1  UNL1        0.0235
     61 H           3.6721    0.4834    0.0000 H       1  UNL1        0.0235
     62 H           3.3638    4.2179    0.0000 H       1  UNL1        0.0599
     63 H           1.8584    3.3156    0.0000 H       1  UNL1        0.0290
     64 H           1.7424    2.5258    0.0000 H       1  UNL1        0.0290
     65 H           4.9864   -4.8194    0.0000 H       1  UNL1        0.0271
     66 H           5.7822   -4.7567    0.0000 H       1  UNL1        0.0271
     67 H           5.2455    3.3332    0.0000 H       1  UNL1        0.0236
     68 H           5.6054    4.1327    0.0000 H       1  UNL1        0.0236
     69 H           4.8631    4.4459    0.0000 H       1  UNL1        0.0236
     70 H           4.3506    5.1574    0.0000 H       1  UNL1        0.0236
     71 H           3.6392    4.6449    0.0000 H       1  UNL1        0.0236
     72 H           4.8059    4.4926    0.0000 H       1  UNL1        0.0236
     73 H           4.6650   -0.6894    0.0000 H       1  UNL1        0.2100
     74 H           3.3672   -3.3156    0.0000 H       1  UNL1        0.0235
     75 H           2.7927   -3.9780    0.0000 H       1  UNL1        0.0235
     76 H           3.4137   -4.4913    0.0000 H       1  UNL1        0.0235
     77 H           3.4551   -4.5525    0.0000 H       1  UNL1        0.0235
     78 H           3.7001   -5.3200    0.0000 H       1  UNL1        0.0235
     79 H           4.5288   -5.0336    0.0000 H       1  UNL1        0.0235
     80 H           2.0000    4.7624    0.0000 H       1  UNL1        0.2098
@<TRIPOS>BOND
     1     1    11    1
     2     1    28    1
     3    15     2    1
     4     2    73    1
     5    26     3    1
     6     3    80    1
     7     4    28    2
     8     5     6    1
     9     5     7    1
    10     5    14    1
    11     5    20    1
    12     6    11    1
    13     6    12    1
    14     6    22    1
    15     7     8    1
    16     7    17    1
    17     7    35    1
    18     8     9    1
    19     8    19    1
    20     8    25    1
    21     9    16    1
    22     9    18    1
    23     9    36    1
    24    10    13    1
    25    10    15    1
    26    10    24    1
    27    10    28    1
    28    11    15    1
    29    11    37    1
    30    12    13    1
    31    12    21    2
    32    13    23    1
    33    13    38    1
    34    14    16    1
    35    14    39    1
    36    14    40    1
    37    15    41    1
    38    16    42    1
    39    16    43    1
    40    17    21    1
    41    17    44    1
    42    17    45    1
    43    18    26    1
    44    18    31    1
    45    18    32    1
    46    19    29    1
    47    19    46    1
    48    19    47    1
    49    20    48    1
    50    20    49    1
    51    20    50    1
    52    21    51    1
    53    22    52    1
    54    22    53    1
    55    22    54    1
    56    23    27    1
    57    23    55    1
    58    23    56    1
    59    24    30    1
    60    24    57    1
    61    24    58    1
    62    25    59    1
    63    25    60    1
    64    25    61    1
    65    26    29    1
    66    26    62    1
    67    27    30    1
    68    27    33    1
    69    27    34    1
    70    29    63    1
    71    29    64    1
    72    30    65    1
    73    30    66    1
    74    31    69    1
    75    31    70    1
    76    31    71    1
    77    32    67    1
    78    32    68    1
    79    32    72    1
    80    33    76    1
    81    33    78    1
    82    33    79    1
    83    34    74    1
    84    34    75    1
    85    34    77    1
