@<TRIPOS>MOLECULE
IMPHY008427
 51 55 0 0 0
SMALL
GASTEIGER

@<TRIPOS>ATOM
      1 O           8.8652   -1.1416    0.0000 O.3     1  UNL1       -0.3625
      2 O           6.4961   -1.6172    0.0000 O.3     1  UNL1       -0.3800
      3 O           5.5022    1.0602    0.0000 O.2     1  UNL1       -0.4866
      4 O           8.9942    1.0255    0.0000 O.2     1  UNL1       -0.2932
      5 O           5.5138   -2.0091    0.0000 O.2     1  UNL1       -0.2920
      6 C           7.4714   -1.9463    0.0000 C.3     1  UNL1        0.0253
      7 C           6.5089   -0.5208    0.0000 C.3     1  UNL1       -0.0078
      8 C           7.2622   -0.9745    0.0000 C.3     1  UNL1        0.1380
      9 C           7.2622    1.0255    0.0000 C.3     1  UNL1        0.0921
     10 C           8.1282   -0.4745    0.0000 C.3     1  UNL1        0.1582
     11 C           8.1282    0.5255    0.0000 C.2     1  UNL1        0.1813
     12 C           6.3961   -0.4745    0.0000 C.2     1  UNL1        0.0683
     13 C           8.4601   -2.0494    0.0000 C.3     1  UNL1        0.0555
     14 C           6.3961    0.5255    0.0000 C.2     1  UNL1        0.1215
     15 C           5.6099   -0.0828    0.0000 C.3     1  UNL1       -0.0581
     16 C           5.9214   -1.3301    0.0000 C.3     1  UNL1       -0.0581
     17 C           7.2622    2.0255    0.0000 C.3     1  UNL1       -0.0452
     18 C           8.9942    0.0255    0.0000 C.3     1  UNL1       -0.0257
     19 C           5.5022   -1.0092    0.0000 C.2     1  UNL1        0.1691
     20 C           4.5961   -0.4953    0.0000 C.3     1  UNL1        0.0516
     21 C           4.5961    0.5463    0.0000 C.3     1  UNL1        0.1317
     22 C           3.7320    1.0497    0.0000 C.ar    1  UNL1       -0.0070
     23 C           3.7359    2.0497    0.0000 C.ar    1  UNL1       -0.0551
     24 C           2.8641    0.5530    0.0000 C.ar    1  UNL1       -0.0551
     25 C           2.8718    2.5530    0.0000 C.ar    1  UNL1       -0.0614
     26 C           2.0000    1.0563    0.0000 C.ar    1  UNL1       -0.0614
     27 C           2.0038    2.0563    0.0000 C.ar    1  UNL1       -0.0617
     28 H           7.2961   -2.7780    0.0000 H       1  UNL1        0.0361
     29 H           8.3314   -2.6558    0.0000 H       1  UNL1        0.0564
     30 H           9.0497   -2.2411    0.0000 H       1  UNL1        0.0564
     31 H           5.4197   -0.9659    0.0000 H       1  UNL1        0.0235
     32 H           5.5572   -1.8318    0.0000 H       1  UNL1        0.0235
     33 H           5.8814    0.4745    0.0000 H       1  UNL1        0.0235
     34 H           5.0525    0.1887    0.0000 H       1  UNL1        0.0235
     35 H           6.4232   -1.6943    0.0000 H       1  UNL1        0.0235
     36 H           5.3384   -0.6402    0.0000 H       1  UNL1        0.0235
     37 H           7.8822    2.0255    0.0000 H       1  UNL1        0.0243
     38 H           7.2622    2.6455    0.0000 H       1  UNL1        0.0243
     39 H           6.6422    2.0255    0.0000 H       1  UNL1        0.0243
     40 H           9.3042   -0.5114    0.0000 H       1  UNL1        0.0263
     41 H           9.5312    0.3355    0.0000 H       1  UNL1        0.0263
     42 H           8.6842    0.5624    0.0000 H       1  UNL1        0.0263
     43 H           6.2841   -2.1999    0.0000 H       1  UNL1        0.2108
     44 H           3.9853   -0.3892    0.0000 H       1  UNL1        0.0385
     45 H           4.3871   -1.0790    0.0000 H       1  UNL1        0.0385
     46 H           4.5997    1.1663    0.0000 H       1  UNL1        0.0788
     47 H           4.2740    2.3576    0.0000 H       1  UNL1        0.0621
     48 H           2.8617   -0.0670    0.0000 H       1  UNL1        0.0621
     49 H           2.8742    3.1730    0.0000 H       1  UNL1        0.0618
     50 H           1.4619    0.7484    0.0000 H       1  UNL1        0.0618
     51 H           1.4681    2.3684    0.0000 H       1  UNL1        0.0618
@<TRIPOS>BOND
     1     1    10    1
     2     1    13    1
     3     8     2    1
     4     2    43    1
     5     3    14    1
     6     3    21    1
     7     4    11    2
     8     5    19    2
     9     6     7    1
    10     6     8    1
    11     6    13    1
    12     6    28    1
    13     7     9    1
    14     7    15    1
    15     7    16    1
    16     8    10    1
    17     8    12    1
    18     9    11    1
    19     9    14    1
    20     9    17    1
    21    10    11    1
    22    10    18    1
    23    12    14    2
    24    12    19    1
    25    13    29    1
    26    13    30    1
    27    15    33    1
    28    15    34    1
    29    15    36    1
    30    16    31    1
    31    16    32    1
    32    16    35    1
    33    17    37    1
    34    17    38    1
    35    17    39    1
    36    18    40    1
    37    18    41    1
    38    18    42    1
    39    19    20    1
    40    20    21    1
    41    20    44    1
    42    20    45    1
    43    21    22    1
    44    21    46    1
    45    22    23   ar
    46    22    24   ar
    47    23    25   ar
    48    23    47    1
    49    24    26   ar
    50    24    48    1
    51    25    27   ar
    52    25    49    1
    53    26    27   ar
    54    26    50    1
    55    27    51    1
