@<TRIPOS>MOLECULE
IMPHY008929
 51 53 0 0 0
SMALL
GASTEIGER

@<TRIPOS>ATOM
      1 O           2.3038   -2.3656    0.0000 O.3     1  UNL1       -0.4802
      2 O           3.8137   -3.2142    0.0000 O.2     1  UNL1       -0.2504
      3 O           9.0736    2.5942    0.0000 O.3     1  UNL1       -0.3845
      4 C           4.6876   -0.9476    0.0000 C.3     1  UNL1       -0.0158
      5 C           4.6876    0.0524    0.0000 C.3     1  UNL1       -0.0030
      6 C           3.7937   -1.4822    0.0000 C.3     1  UNL1        0.0684
      7 C           3.7937    0.5871    0.0000 C.3     1  UNL1       -0.0433
      8 C           5.5536   -1.4476    0.0000 C.3     1  UNL1       -0.0444
      9 C           2.8876   -0.9684    0.0000 C.3     1  UNL1       -0.0372
     10 C           2.8876    0.0732    0.0000 C.3     1  UNL1       -0.0512
     11 C           5.5536    0.5524    0.0000 C.ar    1  UNL1       -0.0380
     12 C           6.4196   -0.9476    0.0000 C.3     1  UNL1       -0.0271
     13 C           4.6876    1.0524    0.0000 C.3     1  UNL1       -0.0552
     14 C           6.4196    0.0524    0.0000 C.ar    1  UNL1       -0.0433
     15 C           4.3036   -2.3424    0.0000 C.3     1  UNL1       -0.0491
     16 C           3.3037   -2.3540    0.0000 C.2     1  UNL1        0.3110
     17 C           5.5376    1.5939    0.0000 C.ar    1  UNL1       -0.0574
     18 C           7.3296    0.5593    0.0000 C.ar    1  UNL1       -0.0524
     19 C           7.3377    1.6009    0.0000 C.ar    1  UNL1       -0.0164
     20 C           6.4356    2.1217    0.0000 C.ar    1  UNL1       -0.0556
     21 C           8.2056    2.0975    0.0000 C.3     1  UNL1        0.0854
     22 C           7.7090    2.9655    0.0000 C.3     1  UNL1       -0.0321
     23 C           8.7023    1.2296    0.0000 C.3     1  UNL1       -0.0321
     24 H           4.6941   -1.7976    0.0000 H       1  UNL1        0.0320
     25 H           4.1982    1.0569    0.0000 H       1  UNL1        0.0274
     26 H           3.4000    1.0661    0.0000 H       1  UNL1        0.0274
     27 H           5.1551   -1.9225    0.0000 H       1  UNL1        0.0272
     28 H           5.9521   -1.9225    0.0000 H       1  UNL1        0.0272
     29 H           2.2767   -0.8623    0.0000 H       1  UNL1        0.0276
     30 H           2.6785   -1.5521    0.0000 H       1  UNL1        0.0276
     31 H           2.6785    0.6569    0.0000 H       1  UNL1        0.0266
     32 H           2.2767   -0.0329    0.0000 H       1  UNL1        0.0266
     33 H           6.6317   -1.5302    0.0000 H       1  UNL1        0.0313
     34 H           7.0302   -0.8399    0.0000 H       1  UNL1        0.0313
     35 H           5.3076    1.0524    0.0000 H       1  UNL1        0.0238
     36 H           4.6876    1.6724    0.0000 H       1  UNL1        0.0238
     37 H           4.0676    1.0524    0.0000 H       1  UNL1        0.0238
     38 H           3.7703   -2.6586    0.0000 H       1  UNL1        0.0240
     39 H           4.6198   -2.8757    0.0000 H       1  UNL1        0.0240
     40 H           4.8370   -2.0262    0.0000 H       1  UNL1        0.0240
     41 H           4.9971    1.8977    0.0000 H       1  UNL1        0.0621
     42 H           7.8630    0.2431    0.0000 H       1  UNL1        0.0624
     43 H           6.4332    2.7417    0.0000 H       1  UNL1        0.0621
     44 H           2.0000   -2.9060    0.0000 H       1  UNL1        0.2951
     45 H           8.1642    0.9216    0.0000 H       1  UNL1        0.0260
     46 H           9.0102    0.6914    0.0000 H       1  UNL1        0.0260
     47 H           8.2471    3.2734    0.0000 H       1  UNL1        0.0260
     48 H           7.4010    3.5036    0.0000 H       1  UNL1        0.0260
     49 H           7.1708    2.6575    0.0000 H       1  UNL1        0.0260
     50 H           9.2404    1.5375    0.0000 H       1  UNL1        0.0260
     51 H           9.0760    3.2142    0.0000 H       1  UNL1        0.2106
@<TRIPOS>BOND
     1     1    16    1
     2     1    44    1
     3     2    16    2
     4     3    21    1
     5     3    51    1
     6     4     5    1
     7     4     6    1
     8     4     8    1
     9     4    24    1
    10     5     7    1
    11     5    11    1
    12     5    13    1
    13     6     9    1
    14     6    15    1
    15     6    16    1
    16     7    10    1
    17     7    25    1
    18     7    26    1
    19     8    12    1
    20     8    27    1
    21     8    28    1
    22     9    10    1
    23     9    29    1
    24     9    30    1
    25    10    31    1
    26    10    32    1
    27    11    14   ar
    28    11    17   ar
    29    12    14    1
    30    12    33    1
    31    12    34    1
    32    13    35    1
    33    13    36    1
    34    13    37    1
    35    14    18   ar
    36    15    38    1
    37    15    39    1
    38    15    40    1
    39    17    20   ar
    40    17    41    1
    41    18    19   ar
    42    18    42    1
    43    19    20   ar
    44    19    21    1
    45    20    43    1
    46    21    22    1
    47    21    23    1
    48    22    47    1
    49    22    48    1
    50    22    49    1
    51    23    45    1
    52    23    46    1
    53    23    50    1
