@<TRIPOS>MOLECULE
IMPHY014488
 94 93 0 0 0
SMALL
GASTEIGER

@<TRIPOS>ATOM
      1 O          21.0526   -0.5950    0.0000 O.3     1  UNL1       -0.3917
      2 O          22.7846   -0.5950    0.0000 O.3     1  UNL1       -0.3917
      3 C          21.0526    0.4050    0.0000 C.3     1  UNL1        0.0576
      4 C          20.1865    0.9050    0.0000 C.3     1  UNL1       -0.0268
      5 C          19.3205    0.4050    0.0000 C.3     1  UNL1       -0.0507
      6 C          18.4545    0.9050    0.0000 C.3     1  UNL1       -0.0530
      7 C          17.5885    0.4050    0.0000 C.3     1  UNL1       -0.0531
      8 C          16.7224    0.9050    0.0000 C.3     1  UNL1       -0.0531
      9 C          15.8564    0.4050    0.0000 C.3     1  UNL1       -0.0531
     10 C          21.9186    0.9050    0.0000 C.3     1  UNL1       -0.0007
     11 C          14.9904    0.9050    0.0000 C.3     1  UNL1       -0.0531
     12 C          14.1244    0.4050    0.0000 C.3     1  UNL1       -0.0531
     13 C          13.2583    0.9050    0.0000 C.3     1  UNL1       -0.0531
     14 C          12.3923    0.4050    0.0000 C.3     1  UNL1       -0.0531
     15 C          22.7846    0.4050    0.0000 C.3     1  UNL1        0.0576
     16 C          11.5263    0.9050    0.0000 C.3     1  UNL1       -0.0531
     17 C          10.6603    0.4050    0.0000 C.3     1  UNL1       -0.0531
     18 C           9.7942    0.9050    0.0000 C.3     1  UNL1       -0.0531
     19 C           8.9282    0.4050    0.0000 C.3     1  UNL1       -0.0531
     20 C          23.6506    0.9050    0.0000 C.3     1  UNL1       -0.0268
     21 C           8.0622    0.9050    0.0000 C.3     1  UNL1       -0.0531
     22 C           7.1962    0.4050    0.0000 C.3     1  UNL1       -0.0531
     23 C          24.5167    0.4050    0.0000 C.3     1  UNL1       -0.0507
     24 C           6.3301    0.9050    0.0000 C.3     1  UNL1       -0.0531
     25 C           5.4641    0.4050    0.0000 C.3     1  UNL1       -0.0531
     26 C          25.3827    0.9050    0.0000 C.3     1  UNL1       -0.0532
     27 C           4.5981    0.9050    0.0000 C.3     1  UNL1       -0.0531
     28 C           3.7320    0.4050    0.0000 C.3     1  UNL1       -0.0533
     29 C          26.2487    0.4050    0.0000 C.3     1  UNL1       -0.0559
     30 C           2.8660    0.9050    0.0000 C.3     1  UNL1       -0.0559
     31 C          27.1147    0.9050    0.0000 C.3     1  UNL1       -0.0653
     32 C           2.0000    0.4050    0.0000 C.3     1  UNL1       -0.0653
     33 H          20.5156    0.0950    0.0000 H       1  UNL1        0.0594
     34 H          20.5851    1.3800    0.0000 H       1  UNL1        0.0290
     35 H          19.7880    1.3800    0.0000 H       1  UNL1        0.0290
     36 H          18.9220   -0.0699    0.0000 H       1  UNL1        0.0266
     37 H          19.7190   -0.0699    0.0000 H       1  UNL1        0.0266
     38 H          18.8530    1.3800    0.0000 H       1  UNL1        0.0265
     39 H          18.0560    1.3800    0.0000 H       1  UNL1        0.0265
     40 H          17.1899   -0.0699    0.0000 H       1  UNL1        0.0265
     41 H          17.9870   -0.0699    0.0000 H       1  UNL1        0.0265
     42 H          17.1210    1.3800    0.0000 H       1  UNL1        0.0265
     43 H          16.3239    1.3800    0.0000 H       1  UNL1        0.0265
     44 H          22.3171    1.3800    0.0000 H       1  UNL1        0.0315
     45 H          21.5201    1.3800    0.0000 H       1  UNL1        0.0315
     46 H          15.4579   -0.0699    0.0000 H       1  UNL1        0.0265
     47 H          16.2549   -0.0699    0.0000 H       1  UNL1        0.0265
     48 H          15.3889    1.3800    0.0000 H       1  UNL1        0.0265
     49 H          14.5919    1.3800    0.0000 H       1  UNL1        0.0265
     50 H          13.7258   -0.0699    0.0000 H       1  UNL1        0.0265
     51 H          14.5229   -0.0699    0.0000 H       1  UNL1        0.0265
     52 H          13.6569    1.3800    0.0000 H       1  UNL1        0.0265
     53 H          12.8598    1.3800    0.0000 H       1  UNL1        0.0265
     54 H          11.9938   -0.0699    0.0000 H       1  UNL1        0.0265
     55 H          12.7908   -0.0699    0.0000 H       1  UNL1        0.0265
     56 H          22.2477    0.0950    0.0000 H       1  UNL1        0.0594
     57 H          11.9248    1.3800    0.0000 H       1  UNL1        0.0265
     58 H          11.1278    1.3800    0.0000 H       1  UNL1        0.0265
     59 H          10.2617   -0.0699    0.0000 H       1  UNL1        0.0265
     60 H          11.0588   -0.0699    0.0000 H       1  UNL1        0.0265
     61 H          10.1928    1.3800    0.0000 H       1  UNL1        0.0265
     62 H           9.3957    1.3800    0.0000 H       1  UNL1        0.0265
     63 H           8.5297   -0.0699    0.0000 H       1  UNL1        0.0265
     64 H           9.3267   -0.0699    0.0000 H       1  UNL1        0.0265
     65 H          24.0492    1.3800    0.0000 H       1  UNL1        0.0290
     66 H          23.2521    1.3800    0.0000 H       1  UNL1        0.0290
     67 H           8.4607    1.3800    0.0000 H       1  UNL1        0.0265
     68 H           7.6636    1.3800    0.0000 H       1  UNL1        0.0265
     69 H           6.7976   -0.0699    0.0000 H       1  UNL1        0.0265
     70 H           7.5947   -0.0699    0.0000 H       1  UNL1        0.0265
     71 H          24.1181   -0.0699    0.0000 H       1  UNL1        0.0266
     72 H          24.9152   -0.0699    0.0000 H       1  UNL1        0.0266
     73 H           6.7287    1.3800    0.0000 H       1  UNL1        0.0265
     74 H           5.9316    1.3800    0.0000 H       1  UNL1        0.0265
     75 H           5.0656   -0.0699    0.0000 H       1  UNL1        0.0265
     76 H           5.8626   -0.0699    0.0000 H       1  UNL1        0.0265
     77 H          25.7812    1.3800    0.0000 H       1  UNL1        0.0265
     78 H          24.9842    1.3800    0.0000 H       1  UNL1        0.0265
     79 H           4.9966    1.3800    0.0000 H       1  UNL1        0.0265
     80 H           4.1996    1.3800    0.0000 H       1  UNL1        0.0265
     81 H          20.5156   -0.9050    0.0000 H       1  UNL1        0.2098
     82 H           3.3335   -0.0699    0.0000 H       1  UNL1        0.0265
     83 H           4.1306   -0.0699    0.0000 H       1  UNL1        0.0265
     84 H          23.3215   -0.9050    0.0000 H       1  UNL1        0.2098
     85 H          25.8502   -0.0699    0.0000 H       1  UNL1        0.0263
     86 H          26.6472   -0.0699    0.0000 H       1  UNL1        0.0263
     87 H           3.2646    1.3800    0.0000 H       1  UNL1        0.0263
     88 H           2.4675    1.3800    0.0000 H       1  UNL1        0.0263
     89 H          27.4247    0.3681    0.0000 H       1  UNL1        0.0230
     90 H          27.6517    1.2150    0.0000 H       1  UNL1        0.0230
     91 H          26.8047    1.4419    0.0000 H       1  UNL1        0.0230
     92 H           1.6900    0.9419    0.0000 H       1  UNL1        0.0230
     93 H           1.4631    0.0950    0.0000 H       1  UNL1        0.0230
     94 H           2.3100   -0.1319    0.0000 H       1  UNL1        0.0230
@<TRIPOS>BOND
     1     1     3    1
     2     1    81    1
     3     2    15    1
     4     2    84    1
     5     3     4    1
     6     3    10    1
     7     3    33    1
     8     4     5    1
     9     4    34    1
    10     4    35    1
    11     5     6    1
    12     5    36    1
    13     5    37    1
    14     6     7    1
    15     6    38    1
    16     6    39    1
    17     7     8    1
    18     7    40    1
    19     7    41    1
    20     8     9    1
    21     8    42    1
    22     8    43    1
    23     9    11    1
    24     9    46    1
    25     9    47    1
    26    10    15    1
    27    10    44    1
    28    10    45    1
    29    11    12    1
    30    11    48    1
    31    11    49    1
    32    12    13    1
    33    12    50    1
    34    12    51    1
    35    13    14    1
    36    13    52    1
    37    13    53    1
    38    14    16    1
    39    14    54    1
    40    14    55    1
    41    15    20    1
    42    15    56    1
    43    16    17    1
    44    16    57    1
    45    16    58    1
    46    17    18    1
    47    17    59    1
    48    17    60    1
    49    18    19    1
    50    18    61    1
    51    18    62    1
    52    19    21    1
    53    19    63    1
    54    19    64    1
    55    20    23    1
    56    20    65    1
    57    20    66    1
    58    21    22    1
    59    21    67    1
    60    21    68    1
    61    22    24    1
    62    22    69    1
    63    22    70    1
    64    23    26    1
    65    23    71    1
    66    23    72    1
    67    24    25    1
    68    24    73    1
    69    24    74    1
    70    25    27    1
    71    25    75    1
    72    25    76    1
    73    26    29    1
    74    26    77    1
    75    26    78    1
    76    27    28    1
    77    27    79    1
    78    27    80    1
    79    28    30    1
    80    28    82    1
    81    28    83    1
    82    29    31    1
    83    29    85    1
    84    29    86    1
    85    30    32    1
    86    30    87    1
    87    30    88    1
    88    31    89    1
    89    31    90    1
    90    31    91    1
    91    32    92    1
    92    32    93    1
    93    32    94    1
