@<TRIPOS>MOLECULE
IMPHY010483
 52 56 0 0 0
SMALL
GASTEIGER

@<TRIPOS>ATOM
      1 O           3.6942   -0.2597    0.0000 O.3     1  UNL1       -0.4544
      2 O           3.4057    2.1044    0.0000 O.3     1  UNL1       -0.4522
      3 O           4.2327    3.5627    0.0000 O.3     1  UNL1       -0.4526
      4 O           8.9844   -2.5627    0.0000 O.3     1  UNL1       -0.4914
      5 O           8.9844   -0.5144    0.0000 O.3     1  UNL1       -0.5033
      6 O           3.1590    1.3875    0.0000 O.2     1  UNL1       -0.2511
      7 N           4.5883   -1.0385    0.0000 N.3     1  UNL1       -0.2919
      8 C           5.4543   -0.5385    0.0000 C.3     1  UNL1        0.0929
      9 C           4.6453    0.0493    0.0000 C.3     1  UNL1        0.1544
     10 C           6.2633    0.0493    0.0000 C.3     1  UNL1       -0.0007
     11 C           6.3203   -1.0385    0.0000 C.ar    1  UNL1       -0.0161
     12 C           4.9543    1.0003    0.0000 C.ar    1  UNL1        0.0435
     13 C           5.9543    1.0003    0.0000 C.ar    1  UNL1       -0.0347
     14 C           4.5883   -2.0385    0.0000 C.3     1  UNL1        0.0035
     15 C           6.3203   -2.0385    0.0000 C.ar    1  UNL1       -0.0374
     16 C           5.4543   -2.5385    0.0000 C.3     1  UNL1       -0.0144
     17 C           4.4196    1.8943    0.0000 C.ar    1  UNL1        0.1732
     18 C           3.7222   -1.5385    0.0000 C.3     1  UNL1       -0.0118
     19 C           7.2142   -0.5039    0.0000 C.ar    1  UNL1       -0.0112
     20 C           6.4889    1.8943    0.0000 C.ar    1  UNL1       -0.0544
     21 C           7.2142   -2.5732    0.0000 C.ar    1  UNL1       -0.0128
     22 C           4.9335    2.8003    0.0000 C.ar    1  UNL1        0.1666
     23 C           5.9751    2.8003    0.0000 C.ar    1  UNL1       -0.0159
     24 C           8.1203   -1.0177    0.0000 C.ar    1  UNL1        0.1588
     25 C           8.1203   -2.0593    0.0000 C.ar    1  UNL1        0.1615
     26 C           2.9511    0.4094    0.0000 C.2     1  UNL1        0.3046
     27 C           3.2904    3.1334    0.0000 C.3     1  UNL1        0.2332
     28 C           2.0000    0.1004    0.0000 C.3     1  UNL1        0.0333
     29 C           8.9805   -3.5627    0.0000 C.3     1  UNL1        0.0790
     30 H           4.5483   -0.5631    0.0000 H       1  UNL1        0.0809
     31 H           6.5733   -0.4877    0.0000 H       1  UNL1        0.0336
     32 H           6.8297    0.3014    0.0000 H       1  UNL1        0.0336
     33 H           3.9777   -1.9308    0.0000 H       1  UNL1        0.0430
     34 H           4.3762   -2.6211    0.0000 H       1  UNL1        0.0430
     35 H           5.0558   -3.0135    0.0000 H       1  UNL1        0.0326
     36 H           5.8528   -3.0135    0.0000 H       1  UNL1        0.0326
     37 H           3.4122   -1.0016    0.0000 H       1  UNL1        0.0391
     38 H           3.1853   -1.8485    0.0000 H       1  UNL1        0.0391
     39 H           4.0322   -2.0754    0.0000 H       1  UNL1        0.0391
     40 H           7.2071    0.1161    0.0000 H       1  UNL1        0.0659
     41 H           7.1089    1.8871    0.0000 H       1  UNL1        0.0622
     42 H           7.2071   -3.1931    0.0000 H       1  UNL1        0.0658
     43 H           6.2872    3.3361    0.0000 H       1  UNL1        0.0655
     44 H           3.0941    3.7215    0.0000 H       1  UNL1        0.1166
     45 H           2.6849    3.0000    0.0000 H       1  UNL1        0.1166
     46 H           1.8084    0.6900    0.0000 H       1  UNL1        0.0342
     47 H           1.4103   -0.0912    0.0000 H       1  UNL1        0.0342
     48 H           2.1916   -0.4893    0.0000 H       1  UNL1        0.0342
     49 H           9.5225   -0.8223    0.0000 H       1  UNL1        0.2923
     50 H           8.3606   -3.5603    0.0000 H       1  UNL1        0.0660
     51 H           8.9782   -4.1826    0.0000 H       1  UNL1        0.0660
     52 H           9.6005   -3.5650    0.0000 H       1  UNL1        0.0660
@<TRIPOS>BOND
     1     9     1    1
     2     1    26    1
     3     2    17    1
     4     2    27    1
     5     3    22    1
     6     3    27    1
     7     4    25    1
     8     4    29    1
     9     5    24    1
    10     5    49    1
    11     6    26    2
    12     8     7    1
    13     7    14    1
    14     7    18    1
    15     8     9    1
    16     8    10    1
    17     8    11    1
    18     9    12    1
    19     9    30    1
    20    10    13    1
    21    10    31    1
    22    10    32    1
    23    11    15   ar
    24    11    19   ar
    25    12    13   ar
    26    12    17   ar
    27    13    20   ar
    28    14    16    1
    29    14    33    1
    30    14    34    1
    31    15    16    1
    32    15    21   ar
    33    16    35    1
    34    16    36    1
    35    17    22   ar
    36    18    37    1
    37    18    38    1
    38    18    39    1
    39    19    24   ar
    40    19    40    1
    41    20    23   ar
    42    20    41    1
    43    21    25   ar
    44    21    42    1
    45    22    23   ar
    46    23    43    1
    47    24    25   ar
    48    26    28    1
    49    27    44    1
    50    27    45    1
    51    28    46    1
    52    28    47    1
    53    28    48    1
    54    29    50    1
    55    29    51    1
    56    29    52    1
