@<TRIPOS>MOLECULE
IMPHY003136
 38 42 0 0 0
SMALL
GASTEIGER

@<TRIPOS>ATOM
      1 O           2.9562    2.6714    0.0000 O.3     1  UNL1       -0.4526
      2 O           4.4081    3.5096    0.0000 O.3     1  UNL1       -0.4526
      3 O           2.8718   -0.5688    0.0000 O.3     1  UNL1       -0.4908
      4 O           2.8560   -2.6170    0.0000 O.3     1  UNL1       -0.4914
      5 O           7.2400    0.9281    0.0000 O.2     1  UNL1       -0.2850
      6 N           7.2334   -1.0667    0.0000 N.ar    1  UNL1       -0.2511
      7 C           4.6419   -0.5719    0.0000 C.ar    1  UNL1        0.0381
      8 C           5.5080   -1.0719    0.0000 C.ar    1  UNL1        0.0227
      9 C           4.6419    0.4281    0.0000 C.ar    1  UNL1        0.0009
     10 C           5.5080    0.9281    0.0000 C.ar    1  UNL1        0.0353
     11 C           6.3740   -0.5719    0.0000 C.ar    1  UNL1        0.1193
     12 C           5.5240   -2.1134    0.0000 C.ar    1  UNL1       -0.0100
     13 C           3.7319   -1.0787    0.0000 C.ar    1  UNL1        0.1698
     14 C           6.3740    0.4281    0.0000 C.2     1  UNL1        0.2125
     15 C           3.7319    0.9350    0.0000 C.ar    1  UNL1       -0.0076
     16 C           5.5240    1.9696    0.0000 C.ar    1  UNL1       -0.0047
     17 C           3.7239    1.9766    0.0000 C.ar    1  UNL1        0.1668
     18 C           4.6260    2.4974    0.0000 C.ar    1  UNL1        0.1669
     19 C           3.7239   -2.1203    0.0000 C.ar    1  UNL1        0.1627
     20 C           4.6260   -2.6412    0.0000 C.ar    1  UNL1       -0.0084
     21 C           6.4011   -2.5762    0.0000 C.ar    1  UNL1       -0.0357
     22 C           7.2469   -2.0583    0.0000 C.ar    1  UNL1        0.0290
     23 C           3.3782    3.6170    0.0000 C.3     1  UNL1        0.2332
     24 C           2.0000   -1.0587    0.0000 C.3     1  UNL1        0.0790
     25 C           2.8521   -3.6170    0.0000 C.3     1  UNL1        0.0790
     26 H           3.1986    0.6188    0.0000 H       1  UNL1        0.0662
     27 H           6.0645    2.2734    0.0000 H       1  UNL1        0.0663
     28 H           4.6284   -3.2612    0.0000 H       1  UNL1        0.0661
     29 H           6.4210   -3.1958    0.0000 H       1  UNL1        0.0639
     30 H           7.7898   -2.3576    0.0000 H       1  UNL1        0.0830
     31 H           3.5069    4.2235    0.0000 H       1  UNL1        0.1166
     32 H           2.7886    3.8088    0.0000 H       1  UNL1        0.1166
     33 H           1.6962   -0.5182    0.0000 H       1  UNL1        0.0660
     34 H           1.4595   -1.3625    0.0000 H       1  UNL1        0.0660
     35 H           2.3038   -1.5992    0.0000 H       1  UNL1        0.0660
     36 H           2.2321   -3.6146    0.0000 H       1  UNL1        0.0660
     37 H           2.8497   -4.2370    0.0000 H       1  UNL1        0.0660
     38 H           3.4721   -3.6194    0.0000 H       1  UNL1        0.0660
@<TRIPOS>BOND
     1     1    17    1
     2     1    23    1
     3     2    18    1
     4     2    23    1
     5     3    13    1
     6     3    24    1
     7     4    19    1
     8     4    25    1
     9     5    14    2
    10     6    11   ar
    11     6    22   ar
    12     7     8   ar
    13     7     9    1
    14     7    13   ar
    15     8    11   ar
    16     8    12   ar
    17     9    10   ar
    18     9    15   ar
    19    10    14    1
    20    10    16   ar
    21    11    14    1
    22    12    20   ar
    23    12    21   ar
    24    13    19   ar
    25    15    17   ar
    26    15    26    1
    27    16    18   ar
    28    16    27    1
    29    17    18   ar
    30    19    20   ar
    31    20    28    1
    32    21    22   ar
    33    21    29    1
    34    22    30    1
    35    23    31    1
    36    23    32    1
    37    24    33    1
    38    24    34    1
    39    24    35    1
    40    25    36    1
    41    25    37    1
    42    25    38    1
