@<TRIPOS>MOLECULE
IMPHY016912
 140 147 0 0 0
SMALL
GASTEIGER

@<TRIPOS>ATOM
      1 O           8.2902    2.6557    0.0000 O.3     1  UNL1       -0.3450
      2 O           6.7611    3.8876    0.0000 O.3     1  UNL1       -0.3642
      3 O           6.8671   -5.5884    0.0000 O.3     1  UNL1       -0.3429
      4 O           5.0597   -4.5356    0.0000 O.3     1  UNL1       -0.3892
      5 O           5.1350   -5.5884    0.0000 O.3     1  UNL1       -0.3405
      6 O           6.8671   -7.5884    0.0000 O.3     1  UNL1       -0.3378
      7 O          10.9247    5.7550    0.0000 O.3     1  UNL1       -0.3484
      8 O           5.1350   -8.5884    0.0000 O.3     1  UNL1       -0.3864
      9 O           3.4030   -7.5884    0.0000 O.3     1  UNL1       -0.3865
     10 O           7.7331   -6.0884    0.0000 O.3     1  UNL1       -0.3431
     11 O           2.5369   -6.0884    0.0000 O.3     1  UNL1       -0.3924
     12 O          12.4221    6.6255    0.0000 O.3     1  UNL1       -0.3405
     13 O           8.5991   -8.5884    0.0000 O.3     1  UNL1       -0.3841
     14 O          11.9298    4.0260    0.0000 O.3     1  UNL1       -0.3841
     15 O          10.3312   -7.5884    0.0000 O.3     1  UNL1       -0.3864
     16 O          13.9298    4.0319    0.0000 O.3     1  UNL1       -0.3864
     17 O          10.3312   -5.5884    0.0000 O.3     1  UNL1       -0.3866
     18 O          14.9247    5.7670    0.0000 O.3     1  UNL1       -0.3865
     19 O          13.4169    8.3605    0.0000 O.3     1  UNL1       -0.3924
     20 C           6.8963    0.6085    0.0000 C.3     1  UNL1       -0.0233
     21 C           7.7643    0.1118    0.0000 C.3     1  UNL1       -0.0298
     22 C           7.7681   -0.8882    0.0000 C.3     1  UNL1       -0.0343
     23 C           7.1018    1.5811    0.0000 C.3     1  UNL1       -0.0015
     24 C           6.9040   -1.3915    0.0000 C.3     1  UNL1       -0.0322
     25 C           6.8920   -2.4331    0.0000 C.3     1  UNL1       -0.0237
     26 C           8.0901    1.6880    0.0000 C.3     1  UNL1        0.0660
     27 C           8.4987    0.7817    0.0000 C.3     1  UNL1       -0.0226
     28 C           6.0322    0.1051    0.0000 C.3     1  UNL1       -0.0467
     29 C           6.0361   -0.8949    0.0000 C.3     1  UNL1       -0.0489
     30 C           7.7920   -2.9574    0.0000 C.3     1  UNL1       -0.0329
     31 C           6.6995    2.4837    0.0000 C.3     1  UNL1        0.0158
     32 C           8.6801   -1.3915    0.0000 C.3     1  UNL1       -0.0494
     33 C           8.6921   -2.4331    0.0000 C.3     1  UNL1       -0.0494
     34 C           6.0284    1.1051    0.0000 C.3     1  UNL1       -0.0590
     35 C           7.4324    3.1465    0.0000 C.3     1  UNL1        0.1704
     36 C           5.9421   -2.9574    0.0000 C.3     1  UNL1       -0.0185
     37 C           7.8046   -4.0423    0.0000 C.3     1  UNL1       -0.0207
     38 C           6.0279   -1.9297    0.0000 C.3     1  UNL1       -0.0590
     39 C           5.9295   -4.0423    0.0000 C.3     1  UNL1        0.0819
     40 C           6.8671   -4.5884    0.0000 C.3     1  UNL1        0.0879
     41 C           5.7211    2.6904    0.0000 C.3     1  UNL1       -0.0572
     42 C           7.9299    4.0140    0.0000 C.3     1  UNL1        0.0018
     43 C           8.9299    4.0170    0.0000 C.3     1  UNL1       -0.0435
     44 C           9.4273    4.8845    0.0000 C.3     1  UNL1       -0.0201
     45 C           6.0010   -6.0884    0.0000 C.3     1  UNL1        0.1887
     46 C           6.0010   -7.0884    0.0000 C.3     1  UNL1        0.1406
     47 C          10.4273    4.8875    0.0000 C.3     1  UNL1        0.0533
     48 C           8.9247    5.7490    0.0000 C.3     1  UNL1       -0.0603
     49 C           5.1350   -7.5884    0.0000 C.3     1  UNL1        0.1144
     50 C           4.2690   -6.0884    0.0000 C.3     1  UNL1        0.1130
     51 C           4.2690   -7.0884    0.0000 C.3     1  UNL1        0.1119
     52 C           3.4030   -5.5884    0.0000 C.3     1  UNL1        0.0730
     53 C           7.7331   -7.0884    0.0000 C.3     1  UNL1        0.1884
     54 C          11.9247    5.7580    0.0000 C.3     1  UNL1        0.1879
     55 C           8.5991   -7.5884    0.0000 C.3     1  UNL1        0.1341
     56 C          12.4273    4.8935    0.0000 C.3     1  UNL1        0.1341
     57 C           9.4651   -7.0884    0.0000 C.3     1  UNL1        0.1140
     58 C          13.4272    4.8965    0.0000 C.3     1  UNL1        0.1141
     59 C           8.5991   -5.5884    0.0000 C.3     1  UNL1        0.0873
     60 C           9.4651   -6.0884    0.0000 C.3     1  UNL1        0.1095
     61 C          13.4221    6.6285    0.0000 C.3     1  UNL1        0.1130
     62 C          13.9247    5.7640    0.0000 C.3     1  UNL1        0.1119
     63 C           8.5991   -4.5884    0.0000 C.3     1  UNL1       -0.0361
     64 C          13.9195    7.4960    0.0000 C.3     1  UNL1        0.0730
     65 H           8.5426   -0.2299    0.0000 H       1  UNL1        0.0310
     66 H           8.4993   -0.4547    0.0000 H       1  UNL1        0.0306
     67 H           6.2565    1.4915    0.0000 H       1  UNL1        0.0335
     68 H           7.6385   -1.8194    0.0000 H       1  UNL1        0.0309
     69 H           8.9350    1.7812    0.0000 H       1  UNL1        0.0600
     70 H           8.8661    0.2823    0.0000 H       1  UNL1        0.0293
     71 H           9.0340    1.0946    0.0000 H       1  UNL1        0.0293
     72 H           5.8179    0.6869    0.0000 H       1  UNL1        0.0271
     73 H           5.4221   -0.0049    0.0000 H       1  UNL1        0.0271
     74 H           5.4251   -0.7895    0.0000 H       1  UNL1        0.0268
     75 H           5.8263   -1.4783    0.0000 H       1  UNL1        0.0268
     76 H           8.5314   -3.3767    0.0000 H       1  UNL1        0.0307
     77 H           6.3097    2.0015    0.0000 H       1  UNL1        0.0354
     78 H           9.2921   -1.4905    0.0000 H       1  UNL1        0.0268
     79 H           8.8824   -0.8054    0.0000 H       1  UNL1        0.0268
     80 H           8.9079   -3.0143    0.0000 H       1  UNL1        0.0268
     81 H           9.3017   -2.3199    0.0000 H       1  UNL1        0.0268
     82 H           6.3363    1.6433    0.0000 H       1  UNL1        0.0235
     83 H           5.4902    1.4131    0.0000 H       1  UNL1        0.0235
     84 H           5.7204    0.5670    0.0000 H       1  UNL1        0.0235
     85 H           5.7398   -2.3713    0.0000 H       1  UNL1        0.0296
     86 H           5.3300   -3.0564    0.0000 H       1  UNL1        0.0296
     87 H           8.0204   -4.6235    0.0000 H       1  UNL1        0.0294
     88 H           8.4142   -3.9291    0.0000 H       1  UNL1        0.0294
     89 H           6.3400   -1.3940    0.0000 H       1  UNL1        0.0235
     90 H           5.4922   -1.6177    0.0000 H       1  UNL1        0.0235
     91 H           5.7158   -2.4655    0.0000 H       1  UNL1        0.0235
     92 H           5.3956   -3.7271    0.0000 H       1  UNL1        0.0619
     93 H           7.4046   -4.8974    0.0000 H       1  UNL1        0.0623
     94 H           5.8492    3.2970    0.0000 H       1  UNL1        0.0234
     95 H           5.1145    2.8185    0.0000 H       1  UNL1        0.0234
     96 H           5.5929    2.0838    0.0000 H       1  UNL1        0.0234
     97 H           8.0357    4.6249    0.0000 H       1  UNL1        0.0317
     98 H           7.3466    4.2243    0.0000 H       1  UNL1        0.0317
     99 H           6.9509    4.4778    0.0000 H       1  UNL1        0.2128
    100 H           8.8240    3.4061    0.0000 H       1  UNL1        0.0270
    101 H           9.5131    3.8067    0.0000 H       1  UNL1        0.0270
    102 H           4.5251   -4.2215    0.0000 H       1  UNL1        0.2099
    103 H           8.8073    4.8826    0.0000 H       1  UNL1        0.0320
    104 H           6.0010   -5.4684    0.0000 H       1  UNL1        0.0938
    105 H           6.0010   -7.7084    0.0000 H       1  UNL1        0.0675
    106 H          10.3214    4.2766    0.0000 H       1  UNL1        0.0563
    107 H          11.0105    4.6772    0.0000 H       1  UNL1        0.0563
    108 H           9.4607    6.0606    0.0000 H       1  UNL1        0.0233
    109 H           8.6131    6.2850    0.0000 H       1  UNL1        0.0233
    110 H           8.3887    5.4374    0.0000 H       1  UNL1        0.0233
    111 H           4.5981   -7.8984    0.0000 H       1  UNL1        0.0648
    112 H           4.2690   -5.4684    0.0000 H       1  UNL1        0.0647
    113 H           4.2690   -7.7084    0.0000 H       1  UNL1        0.0647
    114 H           3.8015   -5.1134    0.0000 H       1  UNL1        0.0584
    115 H           3.0044   -5.1134    0.0000 H       1  UNL1        0.0584
    116 H           7.1962   -6.7784    0.0000 H       1  UNL1        0.0938
    117 H           4.5981   -8.8984    0.0000 H       1  UNL1        0.2100
    118 H          11.6131    6.2940    0.0000 H       1  UNL1        0.0937
    119 H           3.4030   -8.2084    0.0000 H       1  UNL1        0.2100
    120 H           8.0622   -7.8984    0.0000 H       1  UNL1        0.0671
    121 H          12.7389    4.3575    0.0000 H       1  UNL1        0.0671
    122 H           2.0000   -5.7784    0.0000 H       1  UNL1        0.2095
    123 H           9.4651   -7.7084    0.0000 H       1  UNL1        0.0648
    124 H          13.1189    4.3586    0.0000 H       1  UNL1        0.0648
    125 H           8.0622   -5.2784    0.0000 H       1  UNL1        0.0621
    126 H          10.0021   -6.3984    0.0000 H       1  UNL1        0.0646
    127 H          13.1105    7.1645    0.0000 H       1  UNL1        0.0647
    128 H          14.2363    5.2280    0.0000 H       1  UNL1        0.0647
    129 H           9.1360   -8.8984    0.0000 H       1  UNL1        0.2101
    130 H          12.2414    3.4899    0.0000 H       1  UNL1        0.2101
    131 H           9.2191   -4.5884    0.0000 H       1  UNL1        0.0255
    132 H           8.5991   -3.9684    0.0000 H       1  UNL1        0.0255
    133 H           7.9791   -4.5884    0.0000 H       1  UNL1        0.0255
    134 H          14.3956    7.0989    0.0000 H       1  UNL1        0.0584
    135 H          14.3932    7.8960    0.0000 H       1  UNL1        0.0584
    136 H          10.8681   -7.2784    0.0000 H       1  UNL1        0.2100
    137 H          14.5498    4.0338    0.0000 H       1  UNL1        0.2100
    138 H          10.8681   -5.8984    0.0000 H       1  UNL1        0.2100
    139 H          15.2330    6.3048    0.0000 H       1  UNL1        0.2100
    140 H          13.7253    8.8984    0.0000 H       1  UNL1        0.2095
@<TRIPOS>BOND
     1     1    26    1
     2     1    35    1
     3     2    35    1
     4     2    99    1
     5    40     3    1
     6    45     3    1
     7    39     4    1
     8     4   102    1
     9     5    45    1
    10     5    50    1
    11    46     6    1
    12    53     6    1
    13     7    47    1
    14    54     7    1
    15    49     8    1
    16     8   117    1
    17    51     9    1
    18     9   119    1
    19    10    53    1
    20    10    59    1
    21    11    52    1
    22    11   122    1
    23    12    54    1
    24    12    61    1
    25    55    13    1
    26    13   129    1
    27    56    14    1
    28    14   130    1
    29    57    15    1
    30    15   136    1
    31    58    16    1
    32    16   137    1
    33    60    17    1
    34    17   138    1
    35    62    18    1
    36    18   139    1
    37    19    64    1
    38    19   140    1
    39    20    21    1
    40    20    23    1
    41    20    28    1
    42    20    34    1
    43    21    22    1
    44    21    27    1
    45    21    65    1
    46    22    24    1
    47    22    32    1
    48    22    66    1
    49    23    26    1
    50    23    31    1
    51    23    67    1
    52    24    25    1
    53    24    29    1
    54    24    68    1
    55    25    30    1
    56    25    36    1
    57    25    38    1
    58    26    27    1
    59    26    69    1
    60    27    70    1
    61    27    71    1
    62    28    29    1
    63    28    72    1
    64    28    73    1
    65    29    74    1
    66    29    75    1
    67    30    33    1
    68    30    37    1
    69    30    76    1
    70    31    35    1
    71    31    41    1
    72    31    77    1
    73    32    33    1
    74    32    78    1
    75    32    79    1
    76    33    80    1
    77    33    81    1
    78    34    82    1
    79    34    83    1
    80    34    84    1
    81    35    42    1
    82    36    39    1
    83    36    85    1
    84    36    86    1
    85    37    40    1
    86    37    87    1
    87    37    88    1
    88    38    89    1
    89    38    90    1
    90    38    91    1
    91    39    40    1
    92    39    92    1
    93    40    93    1
    94    41    94    1
    95    41    95    1
    96    41    96    1
    97    42    43    1
    98    42    97    1
    99    42    98    1
   100    43    44    1
   101    43   100    1
   102    43   101    1
   103    44    47    1
   104    44    48    1
   105    44   103    1
   106    45    46    1
   107    45   104    1
   108    46    49    1
   109    46   105    1
   110    47   106    1
   111    47   107    1
   112    48   108    1
   113    48   109    1
   114    48   110    1
   115    49    51    1
   116    49   111    1
   117    50    51    1
   118    50    52    1
   119    50   112    1
   120    51   113    1
   121    52   114    1
   122    52   115    1
   123    53    55    1
   124    53   116    1
   125    54    56    1
   126    54   118    1
   127    55    57    1
   128    55   120    1
   129    56    58    1
   130    56   121    1
   131    57    60    1
   132    57   123    1
   133    58    62    1
   134    58   124    1
   135    59    60    1
   136    59    63    1
   137    59   125    1
   138    60   126    1
   139    61    62    1
   140    61    64    1
   141    61   127    1
   142    62   128    1
   143    63   131    1
   144    63   132    1
   145    63   133    1
   146    64   134    1
   147    64   135    1
