@<TRIPOS>MOLECULE
IMPHY015727
 49 48 0 0 0
SMALL
GASTEIGER

@<TRIPOS>ATOM
      1 O           2.5369   -0.2500    0.0000 O.2     1  UNL1       -0.5146
      2 C          10.3312    0.2500    0.0000 C.3     1  UNL1       -0.0531
      3 C          11.1972   -0.2500    0.0000 C.3     1  UNL1       -0.0531
      4 C           9.4651   -0.2500    0.0000 C.3     1  UNL1       -0.0531
      5 C          12.0632    0.2500    0.0000 C.3     1  UNL1       -0.0531
      6 C           8.5991    0.2500    0.0000 C.3     1  UNL1       -0.0531
      7 C          12.9292   -0.2500    0.0000 C.3     1  UNL1       -0.0531
      8 C           7.7331   -0.2500    0.0000 C.3     1  UNL1       -0.0530
      9 C          13.7953    0.2500    0.0000 C.3     1  UNL1       -0.0531
     10 C           6.8671    0.2500    0.0000 C.3     1  UNL1       -0.0528
     11 C          14.6613   -0.2500    0.0000 C.3     1  UNL1       -0.0533
     12 C           6.0010   -0.2500    0.0000 C.3     1  UNL1       -0.0495
     13 C          15.5273    0.2500    0.0000 C.3     1  UNL1       -0.0559
     14 C           5.1350    0.2500    0.0000 C.3     1  UNL1       -0.0316
     15 C          16.3933   -0.2500    0.0000 C.3     1  UNL1       -0.0653
     16 C           4.2690   -0.2500    0.0000 C.2     1  UNL1       -0.0499
     17 C           3.4030    0.2500    0.0000 C.2     1  UNL1        0.0769
     18 H          10.7297    0.7249    0.0000 H       1  UNL1        0.0265
     19 H           9.9326    0.7249    0.0000 H       1  UNL1        0.0265
     20 H          10.7987   -0.7249    0.0000 H       1  UNL1        0.0265
     21 H          11.5957   -0.7249    0.0000 H       1  UNL1        0.0265
     22 H           9.0666   -0.7249    0.0000 H       1  UNL1        0.0265
     23 H           9.8637   -0.7249    0.0000 H       1  UNL1        0.0265
     24 H          12.4617    0.7249    0.0000 H       1  UNL1        0.0265
     25 H          11.6647    0.7249    0.0000 H       1  UNL1        0.0265
     26 H           8.9976    0.7249    0.0000 H       1  UNL1        0.0265
     27 H           8.2006    0.7249    0.0000 H       1  UNL1        0.0265
     28 H          12.5307   -0.7249    0.0000 H       1  UNL1        0.0265
     29 H          13.3278   -0.7249    0.0000 H       1  UNL1        0.0265
     30 H           7.3346   -0.7249    0.0000 H       1  UNL1        0.0265
     31 H           8.1316   -0.7249    0.0000 H       1  UNL1        0.0265
     32 H          14.1938    0.7249    0.0000 H       1  UNL1        0.0265
     33 H          13.3967    0.7249    0.0000 H       1  UNL1        0.0265
     34 H           7.2656    0.7249    0.0000 H       1  UNL1        0.0265
     35 H           6.4685    0.7249    0.0000 H       1  UNL1        0.0265
     36 H          14.2628   -0.7249    0.0000 H       1  UNL1        0.0265
     37 H          15.0598   -0.7249    0.0000 H       1  UNL1        0.0265
     38 H           5.6025   -0.7249    0.0000 H       1  UNL1        0.0268
     39 H           6.3996   -0.7249    0.0000 H       1  UNL1        0.0268
     40 H          15.9258    0.7249    0.0000 H       1  UNL1        0.0263
     41 H          15.1288    0.7249    0.0000 H       1  UNL1        0.0263
     42 H           5.5335    0.7249    0.0000 H       1  UNL1        0.0308
     43 H           4.7365    0.7249    0.0000 H       1  UNL1        0.0308
     44 H          16.0833   -0.7869    0.0000 H       1  UNL1        0.0230
     45 H          16.9303   -0.5600    0.0000 H       1  UNL1        0.0230
     46 H          16.7033    0.2869    0.0000 H       1  UNL1        0.0230
     47 H           4.2690   -0.8700    0.0000 H       1  UNL1        0.0602
     48 H           3.4030    0.8700    0.0000 H       1  UNL1        0.1017
     49 H           2.0000    0.0600    0.0000 H       1  UNL1        0.2912
@<TRIPOS>BOND
     1     1    17    1
     2     1    49    1
     3     2     3    1
     4     2     4    1
     5     2    18    1
     6     2    19    1
     7     3     5    1
     8     3    20    1
     9     3    21    1
    10     4     6    1
    11     4    22    1
    12     4    23    1
    13     5     7    1
    14     5    24    1
    15     5    25    1
    16     6     8    1
    17     6    26    1
    18     6    27    1
    19     7     9    1
    20     7    28    1
    21     7    29    1
    22     8    10    1
    23     8    30    1
    24     8    31    1
    25     9    11    1
    26     9    32    1
    27     9    33    1
    28    10    12    1
    29    10    34    1
    30    10    35    1
    31    11    13    1
    32    11    36    1
    33    11    37    1
    34    12    14    1
    35    12    38    1
    36    12    39    1
    37    13    15    1
    38    13    40    1
    39    13    41    1
    40    14    16    1
    41    14    42    1
    42    14    43    1
    43    15    44    1
    44    15    45    1
    45    15    46    1
    46    16    17    2
    47    16    47    1
    48    17    48    1
