@<TRIPOS>MOLECULE
IMPHY010507
 53 53 0 0 0
SMALL
GASTEIGER

@<TRIPOS>ATOM
      1 O           8.5991   -0.0000    0.0000 O.3     1  UNL1       -0.3914
      2 O           7.7331    1.5000    0.0000 O.2     1  UNL1       -0.2973
      3 O           4.2690    5.5000    0.0000 O.3     1  UNL1       -0.4915
      4 O           2.5369    4.5000    0.0000 O.3     1  UNL1       -0.5033
      5 C           8.5991   -2.0000    0.0000 C.3     1  UNL1       -0.0507
      6 C           7.7331   -1.5000    0.0000 C.3     1  UNL1       -0.0265
      7 C           8.5991   -3.0000    0.0000 C.3     1  UNL1       -0.0530
      8 C           7.7331   -0.5000    0.0000 C.3     1  UNL1        0.0619
      9 C           9.4651   -3.5000    0.0000 C.3     1  UNL1       -0.0531
     10 C           6.8671    0.0000    0.0000 C.3     1  UNL1        0.0319
     11 C           9.4651   -4.5000    0.0000 C.3     1  UNL1       -0.0533
     12 C           6.8671    1.0000    0.0000 C.2     1  UNL1        0.1361
     13 C          10.3312   -5.0000    0.0000 C.3     1  UNL1       -0.0559
     14 C           6.0010    1.5000    0.0000 C.3     1  UNL1        0.0099
     15 C           6.0010    2.5000    0.0000 C.3     1  UNL1       -0.0209
     16 C          10.3312   -6.0000    0.0000 C.3     1  UNL1       -0.0653
     17 C           5.1350    3.0000    0.0000 C.ar    1  UNL1       -0.0433
     18 C           5.1350    4.0000    0.0000 C.ar    1  UNL1       -0.0131
     19 C           4.2690    2.5000    0.0000 C.ar    1  UNL1       -0.0549
     20 C           4.2690    4.5000    0.0000 C.ar    1  UNL1        0.1615
     21 C           3.4030    3.0000    0.0000 C.ar    1  UNL1       -0.0163
     22 C           3.4030    4.0000    0.0000 C.ar    1  UNL1        0.1585
     23 C           5.1350    6.0000    0.0000 C.3     1  UNL1        0.0790
     24 H           9.2097   -2.1077    0.0000 H       1  UNL1        0.0266
     25 H           8.8112   -1.4174    0.0000 H       1  UNL1        0.0266
     26 H           7.1225   -1.3923    0.0000 H       1  UNL1        0.0290
     27 H           7.5210   -2.0826    0.0000 H       1  UNL1        0.0290
     28 H           7.9885   -2.8923    0.0000 H       1  UNL1        0.0265
     29 H           8.3871   -3.5826    0.0000 H       1  UNL1        0.0265
     30 H           7.7331    0.1200    0.0000 H       1  UNL1        0.0597
     31 H          10.0757   -3.6077    0.0000 H       1  UNL1        0.0265
     32 H           9.6772   -2.9174    0.0000 H       1  UNL1        0.0265
     33 H           6.2565    0.1077    0.0000 H       1  UNL1        0.0367
     34 H           6.6550   -0.5826    0.0000 H       1  UNL1        0.0367
     35 H           8.8546   -4.3923    0.0000 H       1  UNL1        0.0265
     36 H           9.2531   -5.0826    0.0000 H       1  UNL1        0.0265
     37 H          10.9417   -5.1077    0.0000 H       1  UNL1        0.0263
     38 H          10.5432   -4.4174    0.0000 H       1  UNL1        0.0263
     39 H           5.3905    1.6077    0.0000 H       1  UNL1        0.0345
     40 H           5.7890    0.9174    0.0000 H       1  UNL1        0.0345
     41 H           6.6116    2.3923    0.0000 H       1  UNL1        0.0317
     42 H           6.2131    3.0826    0.0000 H       1  UNL1        0.0317
     43 H           9.1360   -0.3100    0.0000 H       1  UNL1        0.2098
     44 H           9.7112   -6.0000    0.0000 H       1  UNL1        0.0230
     45 H          10.3312   -6.6200    0.0000 H       1  UNL1        0.0230
     46 H          10.9512   -6.0000    0.0000 H       1  UNL1        0.0230
     47 H           5.6720    4.3100    0.0000 H       1  UNL1        0.0658
     48 H           4.2690    1.8800    0.0000 H       1  UNL1        0.0621
     49 H           2.8660    2.6900    0.0000 H       1  UNL1        0.0655
     50 H           2.0000    4.1900    0.0000 H       1  UNL1        0.2923
     51 H           5.4450    5.4631    0.0000 H       1  UNL1        0.0660
     52 H           5.6720    6.3100    0.0000 H       1  UNL1        0.0660
     53 H           4.8250    6.5369    0.0000 H       1  UNL1        0.0660
@<TRIPOS>BOND
     1     8     1    1
     2     1    43    1
     3     2    12    2
     4     3    20    1
     5     3    23    1
     6     4    22    1
     7     4    50    1
     8     5     6    1
     9     5     7    1
    10     5    24    1
    11     5    25    1
    12     6     8    1
    13     6    26    1
    14     6    27    1
    15     7     9    1
    16     7    28    1
    17     7    29    1
    18     8    10    1
    19     8    30    1
    20     9    11    1
    21     9    31    1
    22     9    32    1
    23    10    12    1
    24    10    33    1
    25    10    34    1
    26    11    13    1
    27    11    35    1
    28    11    36    1
    29    12    14    1
    30    13    16    1
    31    13    37    1
    32    13    38    1
    33    14    15    1
    34    14    39    1
    35    14    40    1
    36    15    17    1
    37    15    41    1
    38    15    42    1
    39    16    44    1
    40    16    45    1
    41    16    46    1
    42    17    18   ar
    43    17    19   ar
    44    18    20   ar
    45    18    47    1
    46    19    21   ar
    47    19    48    1
    48    20    22   ar
    49    21    22   ar
    50    21    49    1
    51    23    51    1
    52    23    52    1
    53    23    53    1
