@<TRIPOS>MOLECULE
IMPHY017666
 112 110 0 0 0
SMALL
GASTEIGER

@<TRIPOS>ATOM
      1 O           1.4030    1.5000    0.0000 O.3     1  UNL1       -0.4679
      2 O           2.2690    5.5369    0.0000 O.3     2  UNL2       -0.4679
      3 O           2.2690    0.0000    0.0000 O.2     1  UNL1       -0.2509
      4 O           3.1350    4.0369    0.0000 O.2     2  UNL2       -0.2509
      5 C          10.0632    1.5000    0.0000 C.3     1  UNL1       -0.0531
      6 C           9.1972    1.0000    0.0000 C.3     1  UNL1       -0.0531
      7 C          10.9292    1.0000    0.0000 C.3     1  UNL1       -0.0531
      8 C           8.3312    1.5000    0.0000 C.3     1  UNL1       -0.0531
      9 C          11.7953    1.5000    0.0000 C.3     1  UNL1       -0.0531
     10 C           7.4651    1.0000    0.0000 C.3     1  UNL1       -0.0531
     11 C          12.6613    1.0000    0.0000 C.3     1  UNL1       -0.0531
     12 C          10.0632    5.0369    0.0000 C.3     2  UNL2       -0.0531
     13 C           9.1972    5.5369    0.0000 C.3     2  UNL2       -0.0531
     14 C          10.9292    5.5369    0.0000 C.3     2  UNL2       -0.0531
     15 C           6.5991    1.5000    0.0000 C.3     1  UNL1       -0.0531
     16 C           8.3312    5.0369    0.0000 C.3     2  UNL2       -0.0531
     17 C          11.7953    5.0369    0.0000 C.3     2  UNL2       -0.0531
     18 C          13.5273    1.5000    0.0000 C.3     1  UNL1       -0.0531
     19 C           7.4651    5.5369    0.0000 C.3     2  UNL2       -0.0531
     20 C           5.7331    1.0000    0.0000 C.3     1  UNL1       -0.0530
     21 C          12.6613    5.5369    0.0000 C.3     2  UNL2       -0.0531
     22 C           6.5991    5.0369    0.0000 C.3     2  UNL2       -0.0530
     23 C          14.3933    1.0000    0.0000 C.3     1  UNL1       -0.0531
     24 C          13.5273    5.0369    0.0000 C.3     2  UNL2       -0.0531
     25 C           4.8671    1.5000    0.0000 C.3     1  UNL1       -0.0526
     26 C           5.7331    5.5369    0.0000 C.3     2  UNL2       -0.0526
     27 C          15.2594    1.5000    0.0000 C.3     1  UNL1       -0.0533
     28 C          14.3933    5.5369    0.0000 C.3     2  UNL2       -0.0533
     29 C           4.0010    1.0000    0.0000 C.3     1  UNL1       -0.0430
     30 C           4.8671    5.0369    0.0000 C.3     2  UNL2       -0.0430
     31 C          16.1254    1.0000    0.0000 C.3     1  UNL1       -0.0559
     32 C          15.2594    5.0369    0.0000 C.3     2  UNL2       -0.0559
     33 C           3.1350    1.5000    0.0000 C.3     1  UNL1        0.0449
     34 C           4.0010    5.5369    0.0000 C.3     2  UNL2        0.0449
     35 C          16.9914    1.5000    0.0000 C.3     1  UNL1       -0.0653
     36 C          16.1254    5.5369    0.0000 C.3     2  UNL2       -0.0653
     37 C           2.2690    1.0000    0.0000 C.2     1  UNL1        0.3068
     38 C           3.1350    5.0369    0.0000 C.2     2  UNL2        0.3068
     39 C           0.5369    1.0000    0.0000 C.3     1  UNL1        0.0817
     40 C           1.4030    5.0369    0.0000 C.3     2  UNL2        0.0817
     41 H          10.4617    1.9750    0.0000 H       1  UNL1        0.0265
     42 H           9.6647    1.9750    0.0000 H       1  UNL1        0.0265
     43 H           8.7987    0.5251    0.0000 H       1  UNL1        0.0265
     44 H           9.5957    0.5251    0.0000 H       1  UNL1        0.0265
     45 H          10.5307    0.5251    0.0000 H       1  UNL1        0.0265
     46 H          11.3278    0.5251    0.0000 H       1  UNL1        0.0265
     47 H           8.7297    1.9750    0.0000 H       1  UNL1        0.0265
     48 H           7.9326    1.9750    0.0000 H       1  UNL1        0.0265
     49 H          12.1938    1.9750    0.0000 H       1  UNL1        0.0265
     50 H          11.3967    1.9750    0.0000 H       1  UNL1        0.0265
     51 H           7.0666    0.5251    0.0000 H       1  UNL1        0.0265
     52 H           7.8637    0.5251    0.0000 H       1  UNL1        0.0265
     53 H           9.6647    4.5620    0.0000 H       2  UNL2        0.0265
     54 H          10.4617    4.5620    0.0000 H       2  UNL2        0.0265
     55 H          12.2628    0.5251    0.0000 H       1  UNL1        0.0265
     56 H          13.0598    0.5251    0.0000 H       1  UNL1        0.0265
     57 H           9.5957    6.0119    0.0000 H       2  UNL2        0.0265
     58 H           8.7987    6.0119    0.0000 H       2  UNL2        0.0265
     59 H          11.3278    6.0119    0.0000 H       2  UNL2        0.0265
     60 H          10.5307    6.0119    0.0000 H       2  UNL2        0.0265
     61 H           6.9976    1.9750    0.0000 H       1  UNL1        0.0265
     62 H           6.2006    1.9750    0.0000 H       1  UNL1        0.0265
     63 H           7.9326    4.5620    0.0000 H       2  UNL2        0.0265
     64 H           8.7297    4.5620    0.0000 H       2  UNL2        0.0265
     65 H          11.3967    4.5620    0.0000 H       2  UNL2        0.0265
     66 H          12.1938    4.5620    0.0000 H       2  UNL2        0.0265
     67 H          13.9258    1.9750    0.0000 H       1  UNL1        0.0265
     68 H          13.1288    1.9750    0.0000 H       1  UNL1        0.0265
     69 H           7.8637    6.0119    0.0000 H       2  UNL2        0.0265
     70 H           7.0666    6.0119    0.0000 H       2  UNL2        0.0265
     71 H           5.3346    0.5251    0.0000 H       1  UNL1        0.0265
     72 H           6.1316    0.5251    0.0000 H       1  UNL1        0.0265
     73 H          13.0598    6.0119    0.0000 H       2  UNL2        0.0265
     74 H          12.2628    6.0119    0.0000 H       2  UNL2        0.0265
     75 H           6.2006    4.5620    0.0000 H       2  UNL2        0.0265
     76 H           6.9976    4.5620    0.0000 H       2  UNL2        0.0265
     77 H          13.9948    0.5251    0.0000 H       1  UNL1        0.0265
     78 H          14.7919    0.5251    0.0000 H       1  UNL1        0.0265
     79 H          13.1288    4.5620    0.0000 H       2  UNL2        0.0265
     80 H          13.9258    4.5620    0.0000 H       2  UNL2        0.0265
     81 H           5.2656    1.9750    0.0000 H       1  UNL1        0.0265
     82 H           4.4685    1.9750    0.0000 H       1  UNL1        0.0265
     83 H           6.1316    6.0119    0.0000 H       2  UNL2        0.0265
     84 H           5.3346    6.0119    0.0000 H       2  UNL2        0.0265
     85 H          15.6579    1.9750    0.0000 H       1  UNL1        0.0265
     86 H          14.8608    1.9750    0.0000 H       1  UNL1        0.0265
     87 H          14.7919    6.0119    0.0000 H       2  UNL2        0.0265
     88 H          13.9948    6.0119    0.0000 H       2  UNL2        0.0265
     89 H           3.6025    0.5251    0.0000 H       1  UNL1        0.0270
     90 H           4.3996    0.5251    0.0000 H       1  UNL1        0.0270
     91 H           4.4685    4.5620    0.0000 H       2  UNL2        0.0270
     92 H           5.2656    4.5620    0.0000 H       2  UNL2        0.0270
     93 H          15.7269    0.5251    0.0000 H       1  UNL1        0.0263
     94 H          16.5239    0.5251    0.0000 H       1  UNL1        0.0263
     95 H          14.8608    4.5620    0.0000 H       2  UNL2        0.0263
     96 H          15.6579    4.5620    0.0000 H       2  UNL2        0.0263
     97 H           3.5335    1.9750    0.0000 H       1  UNL1        0.0377
     98 H           2.7365    1.9750    0.0000 H       1  UNL1        0.0377
     99 H           4.3996    6.0119    0.0000 H       2  UNL2        0.0377
    100 H           3.6025    6.0119    0.0000 H       2  UNL2        0.0377
    101 H          17.3014    0.9631    0.0000 H       1  UNL1        0.0230
    102 H          17.5284    1.8100    0.0000 H       1  UNL1        0.0230
    103 H          16.6814    2.0369    0.0000 H       1  UNL1        0.0230
    104 H          16.4354    5.0000    0.0000 H       2  UNL2        0.0230
    105 H          16.6623    5.8469    0.0000 H       2  UNL2        0.0230
    106 H          15.8154    6.0739    0.0000 H       2  UNL2        0.0230
    107 H           0.2269    1.5369    0.0000 H       1  UNL1        0.0661
    108 H           0.0000    0.6900    0.0000 H       1  UNL1        0.0661
    109 H           0.8469    0.4631    0.0000 H       1  UNL1        0.0661
    110 H           1.0930    5.5739    0.0000 H       2  UNL2        0.0661
    111 H           0.8660    4.7269    0.0000 H       2  UNL2        0.0661
    112 H           1.7130    4.5000    0.0000 H       2  UNL2        0.0661
@<TRIPOS>BOND
     1     1    37    1
     2     1    39    1
     3     2    38    1
     4     2    40    1
     5     3    37    2
     6     4    38    2
     7     5     6    1
     8     5     7    1
     9     5    41    1
    10     5    42    1
    11     6     8    1
    12     6    43    1
    13     6    44    1
    14     7     9    1
    15     7    45    1
    16     7    46    1
    17     8    10    1
    18     8    47    1
    19     8    48    1
    20     9    11    1
    21     9    49    1
    22     9    50    1
    23    10    15    1
    24    10    51    1
    25    10    52    1
    26    11    18    1
    27    11    55    1
    28    11    56    1
    29    12    13    1
    30    12    14    1
    31    12    53    1
    32    12    54    1
    33    13    16    1
    34    13    57    1
    35    13    58    1
    36    14    17    1
    37    14    59    1
    38    14    60    1
    39    15    20    1
    40    15    61    1
    41    15    62    1
    42    16    19    1
    43    16    63    1
    44    16    64    1
    45    17    21    1
    46    17    65    1
    47    17    66    1
    48    18    23    1
    49    18    67    1
    50    18    68    1
    51    19    22    1
    52    19    69    1
    53    19    70    1
    54    20    25    1
    55    20    71    1
    56    20    72    1
    57    21    24    1
    58    21    73    1
    59    21    74    1
    60    22    26    1
    61    22    75    1
    62    22    76    1
    63    23    27    1
    64    23    77    1
    65    23    78    1
    66    24    28    1
    67    24    79    1
    68    24    80    1
    69    25    29    1
    70    25    81    1
    71    25    82    1
    72    26    30    1
    73    26    83    1
    74    26    84    1
    75    27    31    1
    76    27    85    1
    77    27    86    1
    78    28    32    1
    79    28    87    1
    80    28    88    1
    81    29    33    1
    82    29    89    1
    83    29    90    1
    84    30    34    1
    85    30    91    1
    86    30    92    1
    87    31    35    1
    88    31    93    1
    89    31    94    1
    90    32    36    1
    91    32    95    1
    92    32    96    1
    93    33    37    1
    94    33    97    1
    95    33    98    1
    96    34    38    1
    97    34    99    1
    98    34   100    1
    99    35   101    1
   100    35   102    1
   101    35   103    1
   102    36   104    1
   103    36   105    1
   104    36   106    1
   105    39   107    1
   106    39   108    1
   107    39   109    1
   108    40   110    1
   109    40   111    1
   110    40   112    1
