@<TRIPOS>MOLECULE
IMPHY016984
 48 48 0 0 0
SMALL
GASTEIGER

@<TRIPOS>ATOM
      1 O           3.7320   -1.5000    0.0000 O.3     1  UNL1       -0.4643
      2 O           5.4641   -1.5000    0.0000 O.2     1  UNL1       -0.2509
      3 C           6.3301    3.0000    0.0000 C.3     1  UNL1       -0.0531
      4 C           6.3301    2.0000    0.0000 C.3     1  UNL1       -0.0530
      5 C           7.1962    3.5000    0.0000 C.3     1  UNL1       -0.0531
      6 C           5.4641    1.5000    0.0000 C.3     1  UNL1       -0.0526
      7 C           7.1962    4.5000    0.0000 C.3     1  UNL1       -0.0533
      8 C           5.4641    0.5000    0.0000 C.3     1  UNL1       -0.0430
      9 C           8.0622    5.0000    0.0000 C.3     1  UNL1       -0.0559
     10 C           4.5981    0.0000    0.0000 C.3     1  UNL1        0.0449
     11 C           8.0622    6.0000    0.0000 C.3     1  UNL1       -0.0653
     12 C           4.5981   -1.0000    0.0000 C.2     1  UNL1        0.3071
     13 C           3.7320   -2.5000    0.0000 C.3     1  UNL1        0.0964
     14 C           2.8660   -3.0000    0.0000 C.3     1  UNL1        0.0067
     15 C           2.8660   -4.0000    0.0000 C.ar    1  UNL1       -0.0442
     16 C           2.0000   -4.5000    0.0000 C.ar    1  UNL1       -0.0585
     17 C           3.7320   -4.5000    0.0000 C.ar    1  UNL1       -0.0585
     18 C           2.0000   -5.5000    0.0000 C.ar    1  UNL1       -0.0615
     19 C           3.7320   -5.5000    0.0000 C.ar    1  UNL1       -0.0615
     20 C           2.8660   -6.0000    0.0000 C.ar    1  UNL1       -0.0617
     21 H           6.1181    3.5826    0.0000 H       1  UNL1        0.0265
     22 H           5.7196    2.8923    0.0000 H       1  UNL1        0.0265
     23 H           6.5422    1.4174    0.0000 H       1  UNL1        0.0265
     24 H           6.9407    2.1077    0.0000 H       1  UNL1        0.0265
     25 H           7.4082    2.9174    0.0000 H       1  UNL1        0.0265
     26 H           7.8067    3.6077    0.0000 H       1  UNL1        0.0265
     27 H           5.2520    2.0826    0.0000 H       1  UNL1        0.0265
     28 H           4.8535    1.3923    0.0000 H       1  UNL1        0.0265
     29 H           6.9841    5.0826    0.0000 H       1  UNL1        0.0265
     30 H           6.5856    4.3923    0.0000 H       1  UNL1        0.0265
     31 H           5.6762   -0.0826    0.0000 H       1  UNL1        0.0270
     32 H           6.0747    0.6077    0.0000 H       1  UNL1        0.0270
     33 H           8.2742    4.4174    0.0000 H       1  UNL1        0.0263
     34 H           8.6728    5.1077    0.0000 H       1  UNL1        0.0263
     35 H           4.3860    0.5826    0.0000 H       1  UNL1        0.0377
     36 H           3.9875   -0.1077    0.0000 H       1  UNL1        0.0377
     37 H           8.6822    6.0000    0.0000 H       1  UNL1        0.0230
     38 H           8.0622    6.6200    0.0000 H       1  UNL1        0.0230
     39 H           7.4422    6.0000    0.0000 H       1  UNL1        0.0230
     40 H           3.9441   -3.0826    0.0000 H       1  UNL1        0.0701
     41 H           4.3426   -2.3923    0.0000 H       1  UNL1        0.0701
     42 H           2.6540   -2.4174    0.0000 H       1  UNL1        0.0346
     43 H           2.2554   -3.1077    0.0000 H       1  UNL1        0.0346
     44 H           1.4631   -4.1900    0.0000 H       1  UNL1        0.0620
     45 H           4.2690   -4.1900    0.0000 H       1  UNL1        0.0620
     46 H           1.4631   -5.8100    0.0000 H       1  UNL1        0.0618
     47 H           4.2690   -5.8100    0.0000 H       1  UNL1        0.0618
     48 H           2.8660   -6.6200    0.0000 H       1  UNL1        0.0618
@<TRIPOS>BOND
     1     1    12    1
     2     1    13    1
     3     2    12    2
     4     3     4    1
     5     3     5    1
     6     3    21    1
     7     3    22    1
     8     4     6    1
     9     4    23    1
    10     4    24    1
    11     5     7    1
    12     5    25    1
    13     5    26    1
    14     6     8    1
    15     6    27    1
    16     6    28    1
    17     7     9    1
    18     7    29    1
    19     7    30    1
    20     8    10    1
    21     8    31    1
    22     8    32    1
    23     9    11    1
    24     9    33    1
    25     9    34    1
    26    10    12    1
    27    10    35    1
    28    10    36    1
    29    11    37    1
    30    11    38    1
    31    11    39    1
    32    13    14    1
    33    13    40    1
    34    13    41    1
    35    14    15    1
    36    14    42    1
    37    14    43    1
    38    15    16   ar
    39    15    17   ar
    40    16    18   ar
    41    16    44    1
    42    17    19   ar
    43    17    45    1
    44    18    20   ar
    45    18    46    1
    46    19    20   ar
    47    19    47    1
    48    20    48    1
