@<TRIPOS>MOLECULE
IMPHY000726
 48 50 0 0 0
SMALL
GASTEIGER

@<TRIPOS>ATOM
      1 O           6.8671   -0.9050    0.0000 O.3     1  UNL1       -0.3093
      2 O           6.0010    0.5950    0.0000 O.2     1  UNL1       -0.4699
      3 O           5.1350   -0.9050    0.0000 O.3     1  UNL1       -0.3404
      4 O          10.2629    1.0950    0.0000 O.3     1  UNL1       -0.3875
      5 O           6.8671   -2.9050    0.0000 O.3     1  UNL1       -0.3841
      6 O           5.1350   -3.9050    0.0000 O.3     1  UNL1       -0.3864
      7 O           3.4030   -2.9050    0.0000 O.3     1  UNL1       -0.3865
      8 O           6.0010    3.5950    0.0000 O.3     1  UNL1       -0.4773
      9 O           2.5369   -1.4050    0.0000 O.3     1  UNL1       -0.3924
     10 O           7.7331    3.5950    0.0000 O.2     1  UNL1       -0.2454
     11 C           7.7331    0.5950    0.0000 C.3     1  UNL1        0.0520
     12 C           7.7331    1.5950    0.0000 C.3     1  UNL1        0.0087
     13 C           8.6793    1.8997    0.0000 C.3     1  UNL1       -0.0151
     14 C           6.8671    0.0950    0.0000 C.3     1  UNL1        0.2106
     15 C           9.2629    1.0950    0.0000 C.3     1  UNL1        0.0771
     16 C           8.6793    0.2903    0.0000 C.2     1  UNL1       -0.0389
     17 C           6.8671    2.0950    0.0000 C.2     1  UNL1        0.0745
     18 C           6.0010   -1.4050    0.0000 C.3     1  UNL1        0.1918
     19 C           6.0010   -2.4050    0.0000 C.3     1  UNL1        0.1342
     20 C           5.1350   -2.9050    0.0000 C.3     1  UNL1        0.1141
     21 C           4.2690   -2.4050    0.0000 C.3     1  UNL1        0.1119
     22 C           4.2690   -1.4050    0.0000 C.3     1  UNL1        0.1130
     23 C           6.0010    1.5950    0.0000 C.2     1  UNL1        0.0981
     24 C           8.9900   -0.6603    0.0000 C.2     1  UNL1       -0.0965
     25 C           6.8671    3.0950    0.0000 C.2     1  UNL1        0.3360
     26 C           3.4030   -0.9050    0.0000 C.3     1  UNL1        0.0730
     27 H           7.8230   -0.2502    0.0000 H       1  UNL1        0.0413
     28 H           7.8230    2.4402    0.0000 H       1  UNL1        0.0361
     29 H           9.2167    2.2090    0.0000 H       1  UNL1        0.0299
     30 H           8.4283    2.4666    0.0000 H       1  UNL1        0.0299
     31 H           7.4040   -0.2150    0.0000 H       1  UNL1        0.1062
     32 H           9.5446    0.5427    0.0000 H       1  UNL1        0.0640
     33 H           6.0010   -0.7850    0.0000 H       1  UNL1        0.0939
     34 H           6.0010   -3.0250    0.0000 H       1  UNL1        0.0671
     35 H           4.5981   -3.2150    0.0000 H       1  UNL1        0.0648
     36 H           3.7320   -2.0950    0.0000 H       1  UNL1        0.0647
     37 H           4.2690   -0.7850    0.0000 H       1  UNL1        0.0647
     38 H           5.4641    1.9050    0.0000 H       1  UNL1        0.1029
     39 H           8.5759   -1.1217    0.0000 H       1  UNL1        0.0535
     40 H           9.5966   -0.7881    0.0000 H       1  UNL1        0.0535
     41 H          10.5729    1.6319    0.0000 H       1  UNL1        0.2102
     42 H           3.8015   -0.4301    0.0000 H       1  UNL1        0.0584
     43 H           3.0044   -0.4301    0.0000 H       1  UNL1        0.0584
     44 H           6.8671   -3.5250    0.0000 H       1  UNL1        0.2101
     45 H           4.5981   -4.2150    0.0000 H       1  UNL1        0.2100
     46 H           3.4030   -3.5250    0.0000 H       1  UNL1        0.2100
     47 H           2.0000   -1.0950    0.0000 H       1  UNL1        0.2095
     48 H           6.0010    4.2150    0.0000 H       1  UNL1        0.2954
@<TRIPOS>BOND
     1    14     1    1
     2    18     1    1
     3     2    14    1
     4     2    23    1
     5     3    18    1
     6     3    22    1
     7    15     4    1
     8     4    41    1
     9    19     5    1
    10     5    44    1
    11    20     6    1
    12     6    45    1
    13    21     7    1
    14     7    46    1
    15     8    25    1
    16     8    48    1
    17     9    26    1
    18     9    47    1
    19    10    25    2
    20    11    12    1
    21    11    14    1
    22    11    16    1
    23    11    27    1
    24    12    13    1
    25    12    17    1
    26    12    28    1
    27    13    15    1
    28    13    29    1
    29    13    30    1
    30    14    31    1
    31    15    16    1
    32    15    32    1
    33    16    24    2
    34    17    23    2
    35    17    25    1
    36    18    19    1
    37    18    33    1
    38    19    20    1
    39    19    34    1
    40    20    21    1
    41    20    35    1
    42    21    22    1
    43    21    36    1
    44    22    26    1
    45    22    37    1
    46    23    38    1
    47    24    39    1
    48    24    40    1
    49    26    42    1
    50    26    43    1
