@<TRIPOS>MOLECULE
IMPHY017050
 19 21 0 0 0
SMALL
GASTEIGER

@<TRIPOS>ATOM
      1 C           4.8318   -0.0471    0.0000 C.ar    1  UNL1       -0.0354
      2 C           4.3540    1.9014    0.0000 C.3     1  UNL1       -0.0018
      3 C           3.6108   -0.9128    0.0000 C.ar    1  UNL1       -0.0144
      4 C           5.0906    0.9188    0.0000 C.ar    1  UNL1       -0.0425
      5 C           2.7818   -0.3536    0.0000 C.ar    1  UNL1       -0.0173
      6 C           3.0574    0.6077    0.0000 C.ar    1  UNL1       -0.0505
      7 C           6.2307   -0.5559    0.0000 C.ar    1  UNL1       -0.0574
      8 C           6.4896    0.4100    0.0000 C.ar    1  UNL1       -0.0580
      9 C           3.3343   -1.8676    0.0000 C.ar    1  UNL1       -0.0537
     10 C           2.0000   -0.9676    0.0000 C.ar    1  UNL1       -0.0540
     11 C           2.3408   -1.9014    0.0000 C.ar    1  UNL1       -0.0606
     12 H           4.6718    2.4338    0.0000 H       1  UNL1        0.0362
     13 H           3.7409    1.9934    0.0000 H       1  UNL1        0.0362
     14 H           2.6478    1.0731    0.0000 H       1  UNL1        0.0626
     15 H           6.5171   -1.1058    0.0000 H       1  UNL1        0.0621
     16 H           7.0395    0.6964    0.0000 H       1  UNL1        0.0620
     17 H           3.7152   -2.3568    0.0000 H       1  UNL1        0.0624
     18 H           1.4037   -0.7977    0.0000 H       1  UNL1        0.0624
     19 H           1.9941   -2.4154    0.0000 H       1  UNL1        0.0618
@<TRIPOS>BOND
     1     1     2    1
     2     1     3   ar
     3     1     7   ar
     4     2     4    1
     5     2    12    1
     6     2    13    1
     7     3     5    1
     8     3     9   ar
     9     4     6   ar
    10     4     8   ar
    11     5     6   ar
    12     5    10   ar
    13     6    14    1
    14     7     8   ar
    15     7    15    1
    16     8    16    1
    17     9    11   ar
    18     9    17    1
    19    10    11   ar
    20    10    18    1
    21    11    19    1
