@<TRIPOS>MOLECULE
IMPHY006957
 19 20 0 0 0
SMALL
GASTEIGER

@<TRIPOS>ATOM
      1 O           5.5321   -0.0173    0.0000 O.3     1  UNL1       -0.4608
      2 O           4.6660   -1.5173    0.0000 O.2     1  UNL1       -0.2450
      3 C           4.6660    1.4827    0.0000 C.3     1  UNL1        0.0075
      4 C           3.8000    0.9827    0.0000 C.ar    1  UNL1       -0.0302
      5 C           3.8000   -0.0173    0.0000 C.ar    1  UNL1        0.0623
      6 C           5.5321    0.9827    0.0000 C.3     1  UNL1        0.0968
      7 C           2.9061    1.5173    0.0000 C.ar    1  UNL1       -0.0577
      8 C           4.6660   -0.5173    0.0000 C.2     1  UNL1        0.3395
      9 C           2.9061   -0.5520    0.0000 C.ar    1  UNL1       -0.0475
     10 C           2.0000    1.0035    0.0000 C.ar    1  UNL1       -0.0615
     11 C           2.0000   -0.0381    0.0000 C.ar    1  UNL1       -0.0610
     12 H           5.0646    1.9576    0.0000 H       1  UNL1        0.0346
     13 H           4.2675    1.9576    0.0000 H       1  UNL1        0.0346
     14 H           6.1426    0.8750    0.0000 H       1  UNL1        0.0701
     15 H           5.7441    1.5653    0.0000 H       1  UNL1        0.0701
     16 H           2.9132    2.1373    0.0000 H       1  UNL1        0.0621
     17 H           2.9132   -1.1720    0.0000 H       1  UNL1        0.0626
     18 H           1.4643    1.3156    0.0000 H       1  UNL1        0.0618
     19 H           1.4643   -0.3502    0.0000 H       1  UNL1        0.0618
@<TRIPOS>BOND
     1     1     6    1
     2     1     8    1
     3     2     8    2
     4     3     4    1
     5     3     6    1
     6     3    12    1
     7     3    13    1
     8     4     5   ar
     9     4     7   ar
    10     5     8    1
    11     5     9   ar
    12     6    14    1
    13     6    15    1
    14     7    10   ar
    15     7    16    1
    16     9    11   ar
    17     9    17    1
    18    10    11   ar
    19    10    18    1
    20    11    19    1
