@<TRIPOS>MOLECULE
IMPHY000515
 18 17 0 0 0
SMALL
GASTEIGER

@<TRIPOS>ATOM
      1 C        2530.6700 2520.0000    0.0000 C.2     1  UNL1        0.0085
      2 C        2496.0300 2500.0500    0.0000 C.2     1  UNL1        0.0502
      3 C        2456.0300 2500.0500    0.0000 C.1     1  UNL1       -0.0506
      4 C        2416.0300 2500.0500    0.0000 C.1     1  UNL1       -0.0095
      5 C        2376.0300 2500.0500    0.0000 C.1     1  UNL1       -0.0138
      6 C        2336.0300 2500.0500    0.0000 C.1     1  UNL1       -0.0778
      7 C        2296.0300 2500.0500    0.0000 C.3     1  UNL1        0.0797
      8 C        2261.3900 2480.0000    0.0000 C.3     1  UNL1        0.0495
      9 C        2226.7500 2500.0500    0.0000 C.3     1  UNL1        0.1831
     10 O        2192.1100 2480.0000    0.0000 O.3     1  UNL1       -0.2204
     11 C        2565.3100 2500.0500    0.0000 C.2     1  UNL1       -0.0039
     12 C        2600.0500 2520.0000    0.0000 C.2     1  UNL1       -0.0261
     13 C        2634.6900 2500.0500    0.0000 C.3     1  UNL1        0.0260
     14 C        2669.3300 2520.0000    0.0000 C.3     1  UNL1        0.0047
     15 C        2703.9700 2500.0500    0.0000 C.3     1  UNL1        0.0003
     16 C        2738.6100 2520.0000    0.0000 C.3     1  UNL1        0.0000
     17 C        2773.2500 2500.0500    0.0000 C.3     1  UNL1        0.0000
     18 C        2807.8900 2520.0000    0.0000 C.3     1  UNL1        0.0000
@<TRIPOS>BOND
     1     1     2    2
     2     1    11    1
     3     2     3    1
     4     3     4    3
     5     4     5    1
     6     5     6    3
     7     6     7    1
     8     7     8    1
     9     8     9    1
    10     9    10    1
    11    11    12    2
    12    12    13    1
    13    13    14    1
    14    14    15    1
    15    15    16    1
    16    16    17    1
    17    17    18    1
