@<TRIPOS>MOLECULE
IMPHY013139
 40 42 0 0 0
SMALL
GASTEIGER

@<TRIPOS>ATOM
      1 O           7.8805   -1.0720    0.0000 O.3     1  UNL1       -0.4608
      2 O           2.5381   -1.2914    0.0000 O.3     1  UNL1       -0.3915
      3 O           9.4641   -0.2673    0.0000 O.2     1  UNL1       -0.2505
      4 C           5.2022   -0.7673    0.0000 C.3     1  UNL1       -0.0199
      5 C           5.2022    0.2327    0.0000 C.3     1  UNL1       -0.0141
      6 C           6.9343    0.2327    0.0000 C.3     1  UNL1        0.0094
      7 C           6.0682   -1.2673    0.0000 C.3     1  UNL1       -0.0093
      8 C           6.9343   -0.7673    0.0000 C.3     1  UNL1        0.1072
      9 C           6.0682    0.7327    0.0000 C.3     1  UNL1       -0.0391
     10 C           4.3083   -1.3020    0.0000 C.3     1  UNL1       -0.0205
     11 C           7.8805    0.5374    0.0000 C.3     1  UNL1        0.0598
     12 C           4.3083    0.7674    0.0000 C.2     1  UNL1       -0.0706
     13 C           3.4022   -0.7881    0.0000 C.3     1  UNL1        0.0594
     14 C           5.2022   -1.7673    0.0000 C.3     1  UNL1       -0.0588
     15 C           3.4022    0.2535    0.0000 C.3     1  UNL1       -0.0056
     16 C           8.4641   -0.2673    0.0000 C.2     1  UNL1        0.3106
     17 C           8.1912    1.4880    0.0000 C.3     1  UNL1       -0.0519
     18 C           4.3198    1.7673    0.0000 C.2     1  UNL1       -0.0991
     19 H           5.2088    1.0827    0.0000 H       1  UNL1        0.0351
     20 H           7.0242    1.0779    0.0000 H       1  UNL1        0.0344
     21 H           5.6697   -1.7422    0.0000 H       1  UNL1        0.0306
     22 H           6.4668   -1.7422    0.0000 H       1  UNL1        0.0306
     23 H           7.0242   -1.6125    0.0000 H       1  UNL1        0.0737
     24 H           6.4668    1.2076    0.0000 H       1  UNL1        0.0275
     25 H           5.6697    1.2076    0.0000 H       1  UNL1        0.0275
     26 H           3.9147   -1.7810    0.0000 H       1  UNL1        0.0296
     27 H           4.7129   -1.7718    0.0000 H       1  UNL1        0.0296
     28 H           8.4930    0.6336    0.0000 H       1  UNL1        0.0415
     29 H           2.8647   -0.4791    0.0000 H       1  UNL1        0.0596
     30 H           4.5822   -1.7673    0.0000 H       1  UNL1        0.0235
     31 H           5.2022   -2.3873    0.0000 H       1  UNL1        0.0235
     32 H           5.8222   -1.7673    0.0000 H       1  UNL1        0.0235
     33 H           3.1932    0.8372    0.0000 H       1  UNL1        0.0335
     34 H           2.7914    0.1474    0.0000 H       1  UNL1        0.0335
     35 H           8.7805    1.2953    0.0000 H       1  UNL1        0.0238
     36 H           8.3838    2.0773    0.0000 H       1  UNL1        0.0238
     37 H           7.6018    1.6806    0.0000 H       1  UNL1        0.0238
     38 H           4.8603    2.0711    0.0000 H       1  UNL1        0.0535
     39 H           3.7865    2.0835    0.0000 H       1  UNL1        0.0535
     40 H           2.0000   -0.9835    0.0000 H       1  UNL1        0.2098
@<TRIPOS>BOND
     1     1     8    1
     2     1    16    1
     3    13     2    1
     4     2    40    1
     5     3    16    2
     6     4     5    1
     7     4     7    1
     8     4    10    1
     9     4    14    1
    10     5     9    1
    11     5    12    1
    12     5    19    1
    13     6     8    1
    14     6     9    1
    15     6    11    1
    16     6    20    1
    17     7     8    1
    18     7    21    1
    19     7    22    1
    20     8    23    1
    21     9    24    1
    22     9    25    1
    23    10    13    1
    24    10    26    1
    25    10    27    1
    26    11    16    1
    27    11    17    1
    28    11    28    1
    29    12    15    1
    30    12    18    2
    31    13    15    1
    32    13    29    1
    33    14    30    1
    34    14    31    1
    35    14    32    1
    36    15    33    1
    37    15    34    1
    38    17    35    1
    39    17    36    1
    40    17    37    1
    41    18    38    1
    42    18    39    1
