@<TRIPOS>MOLECULE
IMPHY001410
 62 65 0 0 0
SMALL
GASTEIGER

@<TRIPOS>ATOM
      1 O           6.3782    1.5166    0.0000 O.3     1  UNL1       -0.3509
      2 O           4.8837    0.5461    0.0000 O.3     1  UNL1       -0.3667
      3 O          11.8712    0.0094    0.0000 O.3     1  UNL1       -0.4525
      4 O          11.8712    1.6189    0.0000 O.3     1  UNL1       -0.4489
      5 O          10.0590    2.8142    0.0000 O.3     1  UNL1       -0.4884
      6 O           4.0215   -3.6450    0.0000 O.3     1  UNL1       -0.4913
      7 O           2.9511   -0.3505    0.0000 O.3     1  UNL1       -0.4913
      8 O           2.5352   -2.3068    0.0000 O.3     1  UNL1       -0.4885
      9 C           6.5474   -0.0926    0.0000 C.3     1  UNL1        0.0191
     10 C           7.4609    0.3142    0.0000 C.3     1  UNL1       -0.0058
     11 C           5.8782    0.6506    0.0000 C.3     1  UNL1        0.1596
     12 C           7.3564    1.3087    0.0000 C.3     1  UNL1        0.0542
     13 C           8.3269   -0.1858    0.0000 C.3     1  UNL1       -0.0221
     14 C           6.3395   -1.0707    0.0000 C.3     1  UNL1       -0.0197
     15 C           9.1930    0.3142    0.0000 C.ar    1  UNL1       -0.0399
     16 C           5.3884   -1.3797    0.0000 C.ar    1  UNL1       -0.0398
     17 C          10.0590   -0.1858    0.0000 C.ar    1  UNL1       -0.0127
     18 C           9.1930    1.3142    0.0000 C.ar    1  UNL1       -0.0129
     19 C           4.6453   -0.7106    0.0000 C.ar    1  UNL1       -0.0129
     20 C           5.1805   -2.3579    0.0000 C.ar    1  UNL1       -0.0129
     21 C          10.9250    0.3142    0.0000 C.ar    1  UNL1        0.1702
     22 C          10.0590    1.8142    0.0000 C.ar    1  UNL1        0.1660
     23 C          10.9250    1.3142    0.0000 C.ar    1  UNL1        0.2075
     24 C           4.2294   -2.6669    0.0000 C.ar    1  UNL1        0.1654
     25 C           3.6942   -1.0196    0.0000 C.ar    1  UNL1        0.1654
     26 C           3.4863   -1.9978    0.0000 C.ar    1  UNL1        0.2035
     27 C          12.4548    0.8142    0.0000 C.3     1  UNL1        0.2334
     28 C          10.9250    3.3142    0.0000 C.3     1  UNL1        0.0870
     29 C           4.7647   -4.3142    0.0000 C.3     1  UNL1        0.0790
     30 C           2.0000   -0.6595    0.0000 C.3     1  UNL1        0.0790
     31 C           2.3273   -3.2849    0.0000 C.3     1  UNL1        0.0791
     32 C          10.9250    4.3142    0.0000 C.3     1  UNL1       -0.0307
     33 H           5.9485   -0.2530    0.0000 H       1  UNL1        0.0356
     34 H           7.9809    0.6518    0.0000 H       1  UNL1        0.0330
     35 H           5.6560    0.0718    0.0000 H       1  UNL1        0.0910
     36 H           7.9764    1.3087    0.0000 H       1  UNL1        0.0564
     37 H           7.4212    1.9253    0.0000 H       1  UNL1        0.0564
     38 H           7.9284   -0.6608    0.0000 H       1  UNL1        0.0317
     39 H           8.7255   -0.6608    0.0000 H       1  UNL1        0.0317
     40 H           6.4258   -1.6847    0.0000 H       1  UNL1        0.0318
     41 H           6.9591   -1.0924    0.0000 H       1  UNL1        0.0318
     42 H           4.5193    1.0476    0.0000 H       1  UNL1        0.2125
     43 H          10.0590   -0.8058    0.0000 H       1  UNL1        0.0658
     44 H           8.6560    1.6242    0.0000 H       1  UNL1        0.0658
     45 H           4.7742   -0.1041    0.0000 H       1  UNL1        0.0658
     46 H           5.6412   -2.7727    0.0000 H       1  UNL1        0.0658
     47 H          12.9157    0.3994    0.0000 H       1  UNL1        0.1166
     48 H          12.9157    1.2289    0.0000 H       1  UNL1        0.1166
     49 H          11.1371    2.7316    0.0000 H       1  UNL1        0.0694
     50 H          11.5356    3.4218    0.0000 H       1  UNL1        0.0694
     51 H           4.3498   -4.7749    0.0000 H       1  UNL1        0.0660
     52 H           5.2254   -4.7290    0.0000 H       1  UNL1        0.0660
     53 H           5.1795   -3.8534    0.0000 H       1  UNL1        0.0660
     54 H           1.8084   -0.0698    0.0000 H       1  UNL1        0.0660
     55 H           1.4103   -0.8511    0.0000 H       1  UNL1        0.0660
     56 H           2.1916   -1.2492    0.0000 H       1  UNL1        0.0660
     57 H           1.7209   -3.1560    0.0000 H       1  UNL1        0.0660
     58 H           2.1984   -3.8914    0.0000 H       1  UNL1        0.0660
     59 H           2.9338   -3.4138    0.0000 H       1  UNL1        0.0660
     60 H          11.5450    4.3142    0.0000 H       1  UNL1        0.0262
     61 H          10.9250    4.9342    0.0000 H       1  UNL1        0.0262
     62 H          10.3050    4.3142    0.0000 H       1  UNL1        0.0262
@<TRIPOS>BOND
     1     1    11    1
     2     1    12    1
     3     2    11    1
     4     2    42    1
     5     3    21    1
     6     3    27    1
     7     4    23    1
     8     4    27    1
     9     5    22    1
    10     5    28    1
    11     6    24    1
    12     6    29    1
    13     7    25    1
    14     7    30    1
    15     8    26    1
    16     8    31    1
    17     9    10    1
    18     9    11    1
    19     9    14    1
    20     9    33    1
    21    10    12    1
    22    10    13    1
    23    10    34    1
    24    11    35    1
    25    12    36    1
    26    12    37    1
    27    13    15    1
    28    13    38    1
    29    13    39    1
    30    14    16    1
    31    14    40    1
    32    14    41    1
    33    15    17   ar
    34    15    18   ar
    35    16    19   ar
    36    16    20   ar
    37    17    21   ar
    38    17    43    1
    39    18    22   ar
    40    18    44    1
    41    19    25   ar
    42    19    45    1
    43    20    24   ar
    44    20    46    1
    45    21    23   ar
    46    22    23   ar
    47    24    26   ar
    48    25    26   ar
    49    27    47    1
    50    27    48    1
    51    28    32    1
    52    28    49    1
    53    28    50    1
    54    29    51    1
    55    29    52    1
    56    29    53    1
    57    30    54    1
    58    30    55    1
    59    30    56    1
    60    31    57    1
    61    31    58    1
    62    31    59    1
    63    32    60    1
    64    32    61    1
    65    32    62    1
