@<TRIPOS>MOLECULE
IMPHY008064
 45 49 0 0 0
SMALL
GASTEIGER

@<TRIPOS>ATOM
      1 O           6.8190   -1.6589    0.0000 O.3     1  UNL1       -0.4830
      2 O           6.6098    1.3129    0.0000 O.3     1  UNL1       -0.4901
      3 O           3.0000    1.3689    0.0000 O.3     1  UNL1       -0.4815
      4 O          10.0173   -3.3219    0.0000 O.3     1  UNL1       -0.4950
      5 C           7.4758   -0.1871    0.0000 C.3     1  UNL1        0.0629
      6 C           6.6098   -0.6871    0.0000 C.3     1  UNL1        0.1385
      7 C           5.7438   -0.1871    0.0000 C.ar    1  UNL1        0.0358
      8 C           8.2129   -0.8542    0.0000 C.ar    1  UNL1        0.0047
      9 C           7.4758    0.8129    0.0000 C.3     1  UNL1        0.1002
     10 C           5.7438    0.8129    0.0000 C.ar    1  UNL1        0.1378
     11 C           7.8077   -1.7620    0.0000 C.ar    1  UNL1        0.1286
     12 C           4.8498    1.3475    0.0000 C.ar    1  UNL1        0.0585
     13 C           4.8498   -0.7218    0.0000 C.ar    1  UNL1       -0.0481
     14 C           9.2410   -0.7310    0.0000 C.ar    1  UNL1       -0.0511
     15 C           3.9438    0.8337    0.0000 C.ar    1  UNL1        0.1324
     16 C           3.0000    2.4539    0.0000 C.3     1  UNL1        0.1235
     17 C           3.9438   -0.2079    0.0000 C.ar    1  UNL1       -0.0187
     18 C           8.4026   -2.6095    0.0000 C.ar    1  UNL1        0.0221
     19 C           4.8749    2.4322    0.0000 C.2     1  UNL1       -0.0478
     20 C           3.9438    2.9892    0.0000 C.2     1  UNL1       -0.0408
     21 C           9.8553   -1.5645    0.0000 C.ar    1  UNL1       -0.0195
     22 C           9.4333   -2.5101    0.0000 C.ar    1  UNL1        0.1236
     23 C           2.5033    3.3219    0.0000 C.3     1  UNL1       -0.0215
     24 C           2.0000    2.4578    0.0000 C.3     1  UNL1       -0.0215
     25 C          11.0123   -3.2220    0.0000 C.3     1  UNL1        0.0788
     26 H           8.0426    0.0643    0.0000 H       1  UNL1        0.0423
     27 H           6.1087   -1.0522    0.0000 H       1  UNL1        0.0793
     28 H           8.0864    0.7052    0.0000 H       1  UNL1        0.0704
     29 H           7.6879    1.3955    0.0000 H       1  UNL1        0.0704
     30 H           4.8570   -1.3417    0.0000 H       1  UNL1        0.0624
     31 H           9.4871   -0.1619    0.0000 H       1  UNL1        0.0623
     32 H           3.4080   -0.5200    0.0000 H       1  UNL1        0.0654
     33 H           8.1434   -3.1727    0.0000 H       1  UNL1        0.0691
     34 H           5.4178    2.7318    0.0000 H       1  UNL1        0.0624
     35 H           3.9510    3.6091    0.0000 H       1  UNL1        0.0611
     36 H          10.4717   -1.4979    0.0000 H       1  UNL1        0.0654
     37 H           3.0415    3.6298    0.0000 H       1  UNL1        0.0271
     38 H           2.1954    3.8600    0.0000 H       1  UNL1        0.0271
     39 H           1.9652    3.0140    0.0000 H       1  UNL1        0.0271
     40 H           2.0024    3.0778    0.0000 H       1  UNL1        0.0271
     41 H           1.3800    2.4602    0.0000 H       1  UNL1        0.0271
     42 H           1.9976    1.8378    0.0000 H       1  UNL1        0.0271
     43 H          11.0742   -3.8390    0.0000 H       1  UNL1        0.0660
     44 H          11.6292   -3.1601    0.0000 H       1  UNL1        0.0660
     45 H          10.9504   -2.6051    0.0000 H       1  UNL1        0.0660
@<TRIPOS>BOND
     1     1     6    1
     2     1    11    1
     3     2     9    1
     4     2    10    1
     5     3    15    1
     6     3    16    1
     7     4    22    1
     8     4    25    1
     9     5     6    1
    10     5     8    1
    11     5     9    1
    12     5    26    1
    13     6     7    1
    14     6    27    1
    15     7    10   ar
    16     7    13   ar
    17     8    11   ar
    18     8    14   ar
    19     9    28    1
    20     9    29    1
    21    10    12   ar
    22    11    18   ar
    23    12    15   ar
    24    12    19    1
    25    13    17   ar
    26    13    30    1
    27    14    21   ar
    28    14    31    1
    29    15    17   ar
    30    16    20    1
    31    16    23    1
    32    16    24    1
    33    17    32    1
    34    18    22   ar
    35    18    33    1
    36    19    20    2
    37    19    34    1
    38    20    35    1
    39    21    22   ar
    40    21    36    1
    41    23    37    1
    42    23    38    1
    43    23    39    1
    44    24    40    1
    45    24    41    1
    46    24    42    1
    47    25    43    1
    48    25    44    1
    49    25    45    1
