@<TRIPOS>MOLECULE
IMPHY014251
 50 53 0 0 0
SMALL
GASTEIGER

@<TRIPOS>ATOM
      1 O           7.8609    1.3502    0.0000 O.2     1  UNL1       -0.2971
      2 C           5.6538   -0.1308    0.0000 C.3     1  UNL1       -0.0186
      3 C           4.7853    0.3648    0.0000 C.3     1  UNL1       -0.0293
      4 C           3.8778   -0.1465    0.0000 C.3     1  UNL1       -0.0254
      5 C           3.8750   -1.1882    0.0000 C.3     1  UNL1       -0.0302
      6 C           5.6751   -1.1722    0.0000 C.3     1  UNL1       -0.0464
      7 C           5.6293    1.0505    0.0000 C.3     1  UNL1       -0.0372
      8 C           4.7797   -1.7045    0.0000 C.3     1  UNL1       -0.0487
      9 C           2.9423   -1.7425    0.0000 C.3     1  UNL1       -0.0315
     10 C           4.6313    1.3529    0.0000 C.3     1  UNL1       -0.0486
     11 C           6.3054    2.0196    0.0000 C.3     1  UNL1        0.0181
     12 C           6.5828    0.2391    0.0000 C.3     1  UNL1        0.0120
     13 C           2.9482    0.4129    0.0000 C.3     1  UNL1       -0.0471
     14 C           5.3078    2.0894    0.0000 C.3     1  UNL1       -0.0432
     15 C           3.5384    0.7941    0.0000 C.3     1  UNL1       -0.0590
     16 C           2.0000   -1.2047    0.0000 C.3     1  UNL1       -0.0476
     17 C           6.8728    1.1962    0.0000 C.2     1  UNL1        0.1370
     18 C           2.0029   -0.1197    0.0000 C.3     1  UNL1       -0.0521
     19 C           2.4500   -2.6130    0.0000 C.3     1  UNL1       -0.0595
     20 C           3.4500   -2.6041    0.0000 C.3     1  UNL1       -0.0595
     21 H           4.0471    0.7862    0.0000 H       1  UNL1        0.0312
     22 H           3.8825   -2.0381    0.0000 H       1  UNL1        0.0311
     23 H           5.8960   -1.7516    0.0000 H       1  UNL1        0.0271
     24 H           6.2836   -1.0537    0.0000 H       1  UNL1        0.0271
     25 H           5.2551    1.5448    0.0000 H       1  UNL1        0.0277
     26 H           5.0436    0.8471    0.0000 H       1  UNL1        0.0277
     27 H           4.3847   -2.1824    0.0000 H       1  UNL1        0.0268
     28 H           5.1830   -2.1754    0.0000 H       1  UNL1        0.0268
     29 H           4.2795    1.8634    0.0000 H       1  UNL1        0.0268
     30 H           4.0553    1.1235    0.0000 H       1  UNL1        0.0268
     31 H           6.5519    2.8331    0.0000 H       1  UNL1        0.0377
     32 H           6.6783   -0.3735    0.0000 H       1  UNL1        0.0347
     33 H           7.2013    0.1959    0.0000 H       1  UNL1        0.0347
     34 H           3.3541    0.8816    0.0000 H       1  UNL1        0.0271
     35 H           2.5559    0.8930    0.0000 H       1  UNL1        0.0271
     36 H           5.4876    2.6827    0.0000 H       1  UNL1        0.0272
     37 H           4.7694    2.3967    0.0000 H       1  UNL1        0.0272
     38 H           4.1216    1.0046    0.0000 H       1  UNL1        0.0235
     39 H           3.3279    1.3773    0.0000 H       1  UNL1        0.0235
     40 H           2.9552    0.5836    0.0000 H       1  UNL1        0.0235
     41 H           1.3894   -1.0970    0.0000 H       1  UNL1        0.0271
     42 H           1.7894   -1.7879    0.0000 H       1  UNL1        0.0271
     43 H           1.7955    0.4645    0.0000 H       1  UNL1        0.0266
     44 H           1.3918   -0.2242    0.0000 H       1  UNL1        0.0266
     45 H           1.9104   -2.3077    0.0000 H       1  UNL1        0.0235
     46 H           2.1448   -3.1526    0.0000 H       1  UNL1        0.0235
     47 H           2.9897   -2.9182    0.0000 H       1  UNL1        0.0235
     48 H           2.9158   -2.9188    0.0000 H       1  UNL1        0.0235
     49 H           3.7647   -3.1383    0.0000 H       1  UNL1        0.0235
     50 H           3.9841   -2.2894    0.0000 H       1  UNL1        0.0235
@<TRIPOS>BOND
     1     1    17    2
     2     2     3    1
     3     2     6    1
     4     2     7    1
     5     2    12    1
     6     3     4    1
     7     3    10    1
     8     3    21    1
     9     4     5    1
    10     4    13    1
    11     4    15    1
    12     5     8    1
    13     5     9    1
    14     5    22    1
    15     6     8    1
    16     6    23    1
    17     6    24    1
    18     7    11    1
    19     7    25    1
    20     7    26    1
    21     8    27    1
    22     8    28    1
    23     9    16    1
    24     9    19    1
    25     9    20    1
    26    10    14    1
    27    10    29    1
    28    10    30    1
    29    11    14    1
    30    11    17    1
    31    11    31    1
    32    12    17    1
    33    12    32    1
    34    12    33    1
    35    13    18    1
    36    13    34    1
    37    13    35    1
    38    14    36    1
    39    14    37    1
    40    15    38    1
    41    15    39    1
    42    15    40    1
    43    16    18    1
    44    16    41    1
    45    16    42    1
    46    18    43    1
    47    18    44    1
    48    19    45    1
    49    19    46    1
    50    19    47    1
    51    20    48    1
    52    20    49    1
    53    20    50    1
