@<TRIPOS>MOLECULE
IMPHY009447
 45 47 0 0 0
SMALL
GASTEIGER

@<TRIPOS>ATOM
      1 O           5.4920   -0.7815    0.0000 O.2     1  UNL1       -0.4593
      2 O           2.0000    1.2531    0.0000 O.3     1  UNL1       -0.4914
      3 O           2.0000   -0.7469    0.0000 O.3     1  UNL1       -0.4913
      4 O           5.4804    2.2877    0.0000 O.2     1  UNL1       -0.2870
      5 O          11.5865   -2.2877    0.0000 O.3     1  UNL1       -0.4951
      6 C           7.2622   -0.7710    0.0000 C.3     1  UNL1        0.0096
      7 C           8.1301   -0.2744    0.0000 C.3     1  UNL1       -0.0208
      8 C           6.3981   -0.2677    0.0000 C.ar    1  UNL1        0.1096
      9 C           8.9942   -0.7777    0.0000 C.ar    1  UNL1       -0.0467
     10 C           4.5981    0.7531    0.0000 C.ar    1  UNL1        0.0676
     11 C           4.5981   -0.2469    0.0000 C.ar    1  UNL1        0.1425
     12 C           6.3981    0.7739    0.0000 C.ar    1  UNL1        0.0239
     13 C           5.4920    1.2878    0.0000 C.ar    1  UNL1        0.1929
     14 C           3.7320    1.2531    0.0000 C.ar    1  UNL1       -0.0020
     15 C           3.7320   -0.7469    0.0000 C.ar    1  UNL1        0.0267
     16 C           2.8660    0.7531    0.0000 C.ar    1  UNL1        0.1624
     17 C           2.8660   -0.2469    0.0000 C.ar    1  UNL1        0.1650
     18 C           8.9904   -1.7777    0.0000 C.ar    1  UNL1       -0.0551
     19 C           9.8622   -0.2810    0.0000 C.ar    1  UNL1       -0.0551
     20 C           9.8544   -2.2810    0.0000 C.ar    1  UNL1       -0.0197
     21 C          10.7263   -0.7844    0.0000 C.ar    1  UNL1       -0.0197
     22 C          10.7224   -1.7844    0.0000 C.ar    1  UNL1        0.1201
     23 C           2.0000    2.2531    0.0000 C.3     1  UNL1        0.0790
     24 C           2.0000   -1.7469    0.0000 C.3     1  UNL1        0.0790
     25 C          12.4544   -1.7910    0.0000 C.3     1  UNL1        0.0788
     26 H           6.8618   -1.2444    0.0000 H       1  UNL1        0.0347
     27 H           7.6589   -1.2475    0.0000 H       1  UNL1        0.0347
     28 H           8.5305    0.1990    0.0000 H       1  UNL1        0.0317
     29 H           7.7334    0.2021    0.0000 H       1  UNL1        0.0317
     30 H           6.9338    1.0860    0.0000 H       1  UNL1        0.0689
     31 H           3.7320    1.8731    0.0000 H       1  UNL1        0.0663
     32 H           3.7320   -1.3669    0.0000 H       1  UNL1        0.0692
     33 H           8.4522   -2.0856    0.0000 H       1  UNL1        0.0621
     34 H           9.8646    0.3389    0.0000 H       1  UNL1        0.0621
     35 H           9.8521   -2.9010    0.0000 H       1  UNL1        0.0654
     36 H          11.2644   -0.4765    0.0000 H       1  UNL1        0.0654
     37 H           2.6200    2.2531    0.0000 H       1  UNL1        0.0660
     38 H           2.0000    2.8731    0.0000 H       1  UNL1        0.0660
     39 H           1.3800    2.2531    0.0000 H       1  UNL1        0.0660
     40 H           1.3800   -1.7469    0.0000 H       1  UNL1        0.0660
     41 H           2.0000   -2.3669    0.0000 H       1  UNL1        0.0660
     42 H           2.6200   -1.7469    0.0000 H       1  UNL1        0.0660
     43 H          12.7624   -2.3292    0.0000 H       1  UNL1        0.0660
     44 H          12.9926   -1.4831    0.0000 H       1  UNL1        0.0660
     45 H          12.1465   -1.2529    0.0000 H       1  UNL1        0.0660
@<TRIPOS>BOND
     1     1     8   ar
     2     1    11   ar
     3     2    16    1
     4     2    23    1
     5     3    17    1
     6     3    24    1
     7     4    13    2
     8     5    22    1
     9     5    25    1
    10     6     7    1
    11     6     8    1
    12     6    26    1
    13     6    27    1
    14     7     9    1
    15     7    28    1
    16     7    29    1
    17     8    12   ar
    18     9    18   ar
    19     9    19   ar
    20    10    11   ar
    21    10    13   ar
    22    10    14   ar
    23    11    15   ar
    24    12    13   ar
    25    12    30    1
    26    14    16   ar
    27    14    31    1
    28    15    17   ar
    29    15    32    1
    30    16    17   ar
    31    18    20   ar
    32    18    33    1
    33    19    21   ar
    34    19    34    1
    35    20    22   ar
    36    20    35    1
    37    21    22   ar
    38    21    36    1
    39    23    37    1
    40    23    38    1
    41    23    39    1
    42    24    40    1
    43    24    41    1
    44    24    42    1
    45    25    43    1
    46    25    44    1
    47    25    45    1
