@<TRIPOS>MOLECULE
IMPHY005349
 23 24 0 0 0
SMALL
GASTEIGER

@<TRIPOS>ATOM
      1 O           2.1916    1.0937    0.0000 O.3     1  UNL1       -0.3907
      2 N           4.4298   -1.3743    0.0000 N.3     1  UNL1       -0.2921
      3 C           4.4298   -0.3743    0.0000 C.3     1  UNL1        0.0342
      4 C           5.3760   -0.0696    0.0000 C.3     1  UNL1       -0.0323
      5 C           5.3760   -1.6790    0.0000 C.3     1  UNL1       -0.0002
      6 C           5.9596   -0.8743    0.0000 C.3     1  UNL1       -0.0385
      7 C           3.4788   -0.0653    0.0000 C.2     1  UNL1       -0.0302
      8 C           3.4788   -1.6833    0.0000 C.3     1  UNL1        0.0180
      9 C           2.8910   -0.8743    0.0000 C.2     1  UNL1       -0.0672
     10 C           3.1697    0.8858    0.0000 C.3     1  UNL1        0.0668
     11 H           4.4309    0.4757    0.0000 H       1  UNL1        0.0510
     12 H           5.9134    0.2396    0.0000 H       1  UNL1        0.0284
     13 H           5.1250    0.4973    0.0000 H       1  UNL1        0.0284
     14 H           5.1250   -2.2460    0.0000 H       1  UNL1        0.0427
     15 H           5.9134   -1.9883    0.0000 H       1  UNL1        0.0427
     16 H           6.4205   -1.2890    0.0000 H       1  UNL1        0.0278
     17 H           6.4205   -0.4596    0.0000 H       1  UNL1        0.0278
     18 H           2.9418   -1.9933    0.0000 H       1  UNL1        0.0470
     19 H           3.7309   -2.2497    0.0000 H       1  UNL1        0.0470
     20 H           2.2710   -0.8743    0.0000 H       1  UNL1        0.0586
     21 H           3.7837    0.9720    0.0000 H       1  UNL1        0.0604
     22 H           3.1914    1.5054    0.0000 H       1  UNL1        0.0604
     23 H           2.0000    1.6833    0.0000 H       1  UNL1        0.2098
@<TRIPOS>BOND
     1     1    10    1
     2     1    23    1
     3     2     3    1
     4     2     5    1
     5     2     8    1
     6     3     4    1
     7     3     7    1
     8     3    11    1
     9     4     6    1
    10     4    12    1
    11     4    13    1
    12     5     6    1
    13     5    14    1
    14     5    15    1
    15     6    16    1
    16     6    17    1
    17     7     9    2
    18     7    10    1
    19     8     9    1
    20     8    18    1
    21     8    19    1
    22     9    20    1
    23    10    21    1
    24    10    22    1
