@<TRIPOS>MOLECULE
IMPHY015162
 42 42 0 0 0
SMALL
GASTEIGER

@<TRIPOS>ATOM
      1 O           5.4641    2.0000    0.0000 O.3     1  UNL1       -0.3752
      2 O           6.3301   -0.5000    0.0000 O.3     1  UNL1       -0.3752
      3 O           2.8660    2.5000    0.0000 O.3     1  UNL1       -0.3752
      4 O           6.3301   -2.5000    0.0000 O.3     1  UNL1       -0.3752
      5 O           2.8660    0.5000    0.0000 O.3     1  UNL1       -0.3752
      6 O           3.7320   -2.0000    0.0000 O.3     1  UNL1       -0.3752
      7 C           4.5981    2.5000    0.0000 C.3     1  UNL1        0.0711
      8 C           3.7320    2.0000    0.0000 C.3     1  UNL1        0.0711
      9 C           7.1962   -1.0000    0.0000 C.3     1  UNL1        0.0711
     10 C           7.1962   -2.0000    0.0000 C.3     1  UNL1        0.0711
     11 C           3.7320   -1.0000    0.0000 C.3     1  UNL1        0.0711
     12 C           2.8660   -0.5000    0.0000 C.3     1  UNL1        0.0711
     13 C           5.4641   -2.0000    0.0000 C.3     1  UNL1        0.0711
     14 C           4.5981   -2.5000    0.0000 C.3     1  UNL1        0.0711
     15 C           2.0000    1.0000    0.0000 C.3     1  UNL1        0.0711
     16 C           6.3301    0.5000    0.0000 C.3     1  UNL1        0.0711
     17 C           2.0000    2.0000    0.0000 C.3     1  UNL1        0.0711
     18 C           5.4641    1.0000    0.0000 C.3     1  UNL1        0.0711
     19 H           4.9966    2.9750    0.0000 H       1  UNL1        0.0583
     20 H           4.1996    2.9750    0.0000 H       1  UNL1        0.0583
     21 H           4.1306    1.5250    0.0000 H       1  UNL1        0.0583
     22 H           3.3335    1.5250    0.0000 H       1  UNL1        0.0583
     23 H           7.4082   -2.5826    0.0000 H       1  UNL1        0.0583
     24 H           7.8067   -1.8923    0.0000 H       1  UNL1        0.0583
     25 H           5.8626   -1.5250    0.0000 H       1  UNL1        0.0583
     26 H           5.0656   -1.5250    0.0000 H       1  UNL1        0.0583
     27 H           2.6540   -1.0826    0.0000 H       1  UNL1        0.0583
     28 H           2.2554   -0.3923    0.0000 H       1  UNL1        0.0583
     29 H           4.9966   -2.9750    0.0000 H       1  UNL1        0.0583
     30 H           4.1996   -2.9750    0.0000 H       1  UNL1        0.0583
     31 H           4.3426   -1.1077    0.0000 H       1  UNL1        0.0583
     32 H           3.9441   -0.4174    0.0000 H       1  UNL1        0.0583
     33 H           1.7880    2.5826    0.0000 H       1  UNL1        0.0583
     34 H           1.3894    1.8923    0.0000 H       1  UNL1        0.0583
     35 H           1.3894    1.1077    0.0000 H       1  UNL1        0.0583
     36 H           1.7880    0.4174    0.0000 H       1  UNL1        0.0583
     37 H           7.8067   -1.1077    0.0000 H       1  UNL1        0.0583
     38 H           7.4082   -0.4174    0.0000 H       1  UNL1        0.0583
     39 H           5.2520    0.4174    0.0000 H       1  UNL1        0.0583
     40 H           4.8535    1.1077    0.0000 H       1  UNL1        0.0583
     41 H           6.9407    0.3923    0.0000 H       1  UNL1        0.0583
     42 H           6.5422    1.0826    0.0000 H       1  UNL1        0.0583
@<TRIPOS>BOND
     1     1     7    1
     2     1    18    1
     3     2     9    1
     4     2    16    1
     5     3     8    1
     6     3    17    1
     7     4    10    1
     8     4    13    1
     9     5    12    1
    10     5    15    1
    11     6    11    1
    12     6    14    1
    13     7     8    1
    14     7    19    1
    15     7    20    1
    16     8    21    1
    17     8    22    1
    18     9    10    1
    19     9    37    1
    20     9    38    1
    21    10    23    1
    22    10    24    1
    23    11    12    1
    24    11    31    1
    25    11    32    1
    26    12    27    1
    27    12    28    1
    28    13    14    1
    29    13    25    1
    30    13    26    1
    31    14    29    1
    32    14    30    1
    33    15    17    1
    34    15    35    1
    35    15    36    1
    36    16    18    1
    37    16    41    1
    38    16    42    1
    39    17    33    1
    40    17    34    1
    41    18    39    1
    42    18    40    1
