@<TRIPOS>MOLECULE
IMPHY005959
 24 24 0 0 0
SMALL
GASTEIGER

@<TRIPOS>ATOM
      1 O           4.5691   -1.3184    0.0000 O.2     1  UNL1       -0.4594
      2 O           2.8940    0.7694    0.0000 O.2     1  UNL1       -0.2840
      3 C           2.9511   -1.3184    0.0000 C.ar    1  UNL1       -0.0015
      4 C           3.7601   -0.7306    0.0000 C.ar    1  UNL1        0.1769
      5 C           3.7601    0.2694    0.0000 C.2     1  UNL1        0.2210
      6 C           4.6261    1.7694    0.0000 C.2     1  UNL1       -0.0720
      7 C           3.2601   -2.2694    0.0000 C.ar    1  UNL1       -0.0203
      8 C           4.6261    0.7694    0.0000 C.2     1  UNL1       -0.0125
      9 C           2.0000   -1.0094    0.0000 C.3     1  UNL1       -0.0360
     10 C           4.2601   -2.2694    0.0000 C.ar    1  UNL1        0.0930
     11 C           5.4921    2.2694    0.0000 C.3     1  UNL1       -0.0436
     12 C           3.7601    2.2694    0.0000 C.3     1  UNL1       -0.0436
     13 H           5.1630    0.4594    0.0000 H       1  UNL1        0.0656
     14 H           2.8956   -2.7710    0.0000 H       1  UNL1        0.0652
     15 H           2.1916   -0.4197    0.0000 H       1  UNL1        0.0279
     16 H           1.4103   -0.8178    0.0000 H       1  UNL1        0.0279
     17 H           1.8084   -1.5990    0.0000 H       1  UNL1        0.0279
     18 H           4.6245   -2.7710    0.0000 H       1  UNL1        0.1029
     19 H           5.8021    1.7325    0.0000 H       1  UNL1        0.0274
     20 H           6.0291    2.5794    0.0000 H       1  UNL1        0.0274
     21 H           5.1821    2.8064    0.0000 H       1  UNL1        0.0274
     22 H           4.0701    2.8064    0.0000 H       1  UNL1        0.0274
     23 H           3.2231    2.5794    0.0000 H       1  UNL1        0.0274
     24 H           3.4501    1.7325    0.0000 H       1  UNL1        0.0274
@<TRIPOS>BOND
     1     1     4   ar
     2     1    10   ar
     3     2     5    2
     4     3     4   ar
     5     3     7   ar
     6     3     9    1
     7     4     5    1
     8     5     8    1
     9     6     8    2
    10     6    11    1
    11     6    12    1
    12     7    10   ar
    13     7    14    1
    14     8    13    1
    15     9    15    1
    16     9    16    1
    17     9    17    1
    18    10    18    1
    19    11    19    1
    20    11    20    1
    21    11    21    1
    22    12    22    1
    23    12    23    1
    24    12    24    1
