@<TRIPOS>MOLECULE
IMPHY012600
 40 43 0 0 0
SMALL
GASTEIGER

@<TRIPOS>ATOM
      1 O           2.0000    0.0212    0.0000 O.3     1  UNL1       -0.3674
      2 C           3.8570   -0.7073    0.0000 C.3     1  UNL1        0.0056
      3 C           4.7580   -0.2734    0.0000 C.3     1  UNL1       -0.0273
      4 C           2.9561   -0.2734    0.0000 C.3     1  UNL1        0.0916
      5 C           4.3570    1.4834    0.0000 C.3     1  UNL1       -0.0300
      6 C           4.9805    0.7015    0.0000 C.3     1  UNL1       -0.0283
      7 C           3.7502    0.4695    0.0000 C.3     1  UNL1       -0.0407
      8 C           2.7336    0.7015    0.0000 C.3     1  UNL1        0.0886
      9 C           3.3570    1.4834    0.0000 C.3     1  UNL1       -0.0117
     10 C           3.9930   -1.6920    0.0000 C.3     1  UNL1       -0.0355
     11 C           5.4431   -0.9937    0.0000 C.3     1  UNL1       -0.0489
     12 C           4.9713   -1.8687    0.0000 C.3     1  UNL1       -0.0496
     13 C           5.6385    1.4546    0.0000 C.3     1  UNL1       -0.0593
     14 C           5.9001    0.3085    0.0000 C.3     1  UNL1       -0.0593
     15 C           2.9232    2.3843    0.0000 C.3     1  UNL1       -0.0597
     16 C           3.2714   -2.3843    0.0000 C.3     1  UNL1       -0.0618
     17 H           5.3559   -0.1092    0.0000 H       1  UNL1        0.0312
     18 H           2.7296   -0.8506    0.0000 H       1  UNL1        0.0628
     19 H           4.6260    2.0420    0.0000 H       1  UNL1        0.0310
     20 H           3.3424    0.9365    0.0000 H       1  UNL1        0.0275
     21 H           3.1801    0.2257    0.0000 H       1  UNL1        0.0275
     22 H           2.2791    1.1233    0.0000 H       1  UNL1        0.0625
     23 H           3.6869    2.0083    0.0000 H       1  UNL1        0.0327
     24 H           3.4074   -1.4885    0.0000 H       1  UNL1        0.0304
     25 H           5.9549   -1.3437    0.0000 H       1  UNL1        0.0268
     26 H           5.8450   -0.5216    0.0000 H       1  UNL1        0.0268
     27 H           4.7976   -2.4638    0.0000 H       1  UNL1        0.0268
     28 H           5.5449   -2.1040    0.0000 H       1  UNL1        0.0268
     29 H           6.1054    1.0467    0.0000 H       1  UNL1        0.0235
     30 H           6.0464    1.9215    0.0000 H       1  UNL1        0.0235
     31 H           5.1716    1.8625    0.0000 H       1  UNL1        0.0235
     32 H           5.6564   -0.2616    0.0000 H       1  UNL1        0.0235
     33 H           6.4702    0.0648    0.0000 H       1  UNL1        0.0235
     34 H           6.1437    0.8786    0.0000 H       1  UNL1        0.0235
     35 H           3.4818    2.6533    0.0000 H       1  UNL1        0.0233
     36 H           2.6542    2.9429    0.0000 H       1  UNL1        0.0233
     37 H           2.3646    2.1153    0.0000 H       1  UNL1        0.0233
     38 H           2.8422   -1.9369    0.0000 H       1  UNL1        0.0233
     39 H           2.8240   -2.8136    0.0000 H       1  UNL1        0.0233
     40 H           3.7007   -2.8317    0.0000 H       1  UNL1        0.0233
@<TRIPOS>BOND
     1     1     4    1
     2     1     8    1
     3     2     3    1
     4     2     4    1
     5     2     7    1
     6     2    10    1
     7     3     6    1
     8     3    11    1
     9     3    17    1
    10     4     8    1
    11     4    18    1
    12     5     6    1
    13     5     7    1
    14     5     9    1
    15     5    19    1
    16     6    13    1
    17     6    14    1
    18     7    20    1
    19     7    21    1
    20     8     9    1
    21     8    22    1
    22     9    15    1
    23     9    23    1
    24    10    12    1
    25    10    16    1
    26    10    24    1
    27    11    12    1
    28    11    25    1
    29    11    26    1
    30    12    27    1
    31    12    28    1
    32    13    29    1
    33    13    30    1
    34    13    31    1
    35    14    32    1
    36    14    33    1
    37    14    34    1
    38    15    35    1
    39    15    36    1
    40    15    37    1
    41    16    38    1
    42    16    39    1
    43    16    40    1
