@<TRIPOS>MOLECULE
IMPHY015554
 77 80 0 0 0
SMALL
GASTEIGER

@<TRIPOS>ATOM
      1 O           2.0024   -3.3727    0.0000 O.3     1  UNL1       -0.3875
      2 C           7.3955   -0.3204    0.0000 C.3     1  UNL1       -0.0259
      3 C           7.3955   -1.3204    0.0000 C.3     1  UNL1       -0.0323
      4 C           6.5294   -1.8204    0.0000 C.3     1  UNL1       -0.0343
      5 C           5.6634   -1.3204    0.0000 C.3     1  UNL1       -0.0320
      6 C           4.7534   -1.8272    0.0000 C.3     1  UNL1       -0.0223
      7 C           8.3417   -0.0156    0.0000 C.3     1  UNL1       -0.0328
      8 C           6.5294    0.1796    0.0000 C.3     1  UNL1       -0.0468
      9 C           5.6634   -0.3204    0.0000 C.3     1  UNL1       -0.0489
     10 C           4.7454   -2.8688    0.0000 C.3     1  UNL1       -0.0324
     11 C           8.3417   -1.6251    0.0000 C.3     1  UNL1       -0.0492
     12 C           6.5455   -2.8619    0.0000 C.3     1  UNL1       -0.0494
     13 C           8.9253   -0.8204    0.0000 C.3     1  UNL1       -0.0492
     14 C           5.6475   -3.3896    0.0000 C.3     1  UNL1       -0.0493
     15 C           3.8266   -1.2631    0.0000 C.3     1  UNL1       -0.0237
     16 C           7.3955    0.6796    0.0000 C.3     1  UNL1       -0.0590
     17 C           8.6524    0.9349    0.0000 C.3     1  UNL1       -0.0405
     18 C           3.8100   -3.4185    0.0000 C.3     1  UNL1       -0.0196
     19 C           4.7611   -0.8272    0.0000 C.3     1  UNL1       -0.0588
     20 C           2.8703   -2.8760    0.0000 C.3     1  UNL1        0.0763
     21 C           2.8787   -1.7911    0.0000 C.2     1  UNL1       -0.0480
     22 C           9.6309    1.1411    0.0000 C.3     1  UNL1       -0.0502
     23 C           7.9845    1.6792    0.0000 C.3     1  UNL1       -0.0621
     24 C           9.9415    2.0916    0.0000 C.3     1  UNL1       -0.0526
     25 C           2.0185   -1.2811    0.0000 C.2     1  UNL1       -0.0970
     26 C          10.9200    2.2979    0.0000 C.3     1  UNL1       -0.0507
     27 C          11.2307    3.2484    0.0000 C.3     1  UNL1       -0.0467
     28 C          12.2092    3.4546    0.0000 C.3     1  UNL1       -0.0627
     29 C          10.5628    3.9927    0.0000 C.3     1  UNL1       -0.0627
     30 H           7.4854   -2.1656    0.0000 H       1  UNL1        0.0309
     31 H           7.2688   -2.2397    0.0000 H       1  UNL1        0.0306
     32 H           6.3995   -0.8954    0.0000 H       1  UNL1        0.0309
     33 H           9.1814    0.1163    0.0000 H       1  UNL1        0.0309
     34 H           6.9280    0.6546    0.0000 H       1  UNL1        0.0271
     35 H           6.1309    0.6546    0.0000 H       1  UNL1        0.0271
     36 H           5.4514    0.2623    0.0000 H       1  UNL1        0.0268
     37 H           5.0528   -0.4280    0.0000 H       1  UNL1        0.0268
     38 H           4.7487   -3.7188    0.0000 H       1  UNL1        0.0307
     39 H           8.0907   -2.1920    0.0000 H       1  UNL1        0.0268
     40 H           8.8791   -1.9343    0.0000 H       1  UNL1        0.0268
     41 H           6.7635   -3.4423    0.0000 H       1  UNL1        0.0268
     42 H           7.1546   -2.7464    0.0000 H       1  UNL1        0.0268
     43 H           9.3862   -1.2351    0.0000 H       1  UNL1        0.0268
     44 H           9.3862   -0.4056    0.0000 H       1  UNL1        0.0268
     45 H           5.2502   -3.8656    0.0000 H       1  UNL1        0.0268
     46 H           6.0484   -3.8625    0.0000 H       1  UNL1        0.0268
     47 H           4.2348   -0.7965    0.0000 H       1  UNL1        0.0316
     48 H           3.4367   -0.7811    0.0000 H       1  UNL1        0.0316
     49 H           8.0155    0.6796    0.0000 H       1  UNL1        0.0235
     50 H           7.3955    1.2996    0.0000 H       1  UNL1        0.0235
     51 H           6.7755    0.6796    0.0000 H       1  UNL1        0.0235
     52 H           8.8450    1.5242    0.0000 H       1  UNL1        0.0301
     53 H           3.4127   -3.8945    0.0000 H       1  UNL1        0.0296
     54 H           4.2109   -3.8914    0.0000 H       1  UNL1        0.0296
     55 H           5.3811   -0.8320    0.0000 H       1  UNL1        0.0235
     56 H           4.7659   -0.2072    0.0000 H       1  UNL1        0.0235
     57 H           4.1412   -0.8224    0.0000 H       1  UNL1        0.0235
     58 H           2.3352   -2.5629    0.0000 H       1  UNL1        0.0640
     59 H           9.6514    0.5215    0.0000 H       1  UNL1        0.0268
     60 H          10.2447    1.0538    0.0000 H       1  UNL1        0.0268
     61 H           8.4460    2.0933    0.0000 H       1  UNL1        0.0233
     62 H           7.5704    2.1407    0.0000 H       1  UNL1        0.0233
     63 H           7.5230    1.2651    0.0000 H       1  UNL1        0.0233
     64 H           9.9210    2.7113    0.0000 H       1  UNL1        0.0265
     65 H           9.3277    2.1790    0.0000 H       1  UNL1        0.0265
     66 H           2.0257   -0.6611    0.0000 H       1  UNL1        0.0535
     67 H           1.4780   -1.5849    0.0000 H       1  UNL1        0.0535
     68 H           2.0000   -3.9927    0.0000 H       1  UNL1        0.2102
     69 H          10.9406    1.6782    0.0000 H       1  UNL1        0.0268
     70 H          11.5338    2.2105    0.0000 H       1  UNL1        0.0268
     71 H          11.4233    3.8377    0.0000 H       1  UNL1        0.0295
     72 H          12.3371    2.8479    0.0000 H       1  UNL1        0.0232
     73 H          12.8159    3.5824    0.0000 H       1  UNL1        0.0232
     74 H          12.0813    4.0613    0.0000 H       1  UNL1        0.0232
     75 H          11.0243    4.4067    0.0000 H       1  UNL1        0.0232
     76 H          10.1488    4.4542    0.0000 H       1  UNL1        0.0232
     77 H          10.1014    3.5786    0.0000 H       1  UNL1        0.0232
@<TRIPOS>BOND
     1    20     1    1
     2     1    68    1
     3     2     3    1
     4     2     7    1
     5     2     8    1
     6     2    16    1
     7     3     4    1
     8     3    11    1
     9     3    30    1
    10     4     5    1
    11     4    12    1
    12     4    31    1
    13     5     6    1
    14     5     9    1
    15     5    32    1
    16     6    10    1
    17     6    15    1
    18     6    19    1
    19     7    13    1
    20     7    17    1
    21     7    33    1
    22     8     9    1
    23     8    34    1
    24     8    35    1
    25     9    36    1
    26     9    37    1
    27    10    14    1
    28    10    18    1
    29    10    38    1
    30    11    13    1
    31    11    39    1
    32    11    40    1
    33    12    14    1
    34    12    41    1
    35    12    42    1
    36    13    43    1
    37    13    44    1
    38    14    45    1
    39    14    46    1
    40    15    21    1
    41    15    47    1
    42    15    48    1
    43    16    49    1
    44    16    50    1
    45    16    51    1
    46    17    22    1
    47    17    23    1
    48    17    52    1
    49    18    20    1
    50    18    53    1
    51    18    54    1
    52    19    55    1
    53    19    56    1
    54    19    57    1
    55    20    21    1
    56    20    58    1
    57    21    25    2
    58    22    24    1
    59    22    59    1
    60    22    60    1
    61    23    61    1
    62    23    62    1
    63    23    63    1
    64    24    26    1
    65    24    64    1
    66    24    65    1
    67    25    66    1
    68    25    67    1
    69    26    27    1
    70    26    69    1
    71    26    70    1
    72    27    28    1
    73    27    29    1
    74    27    71    1
    75    28    72    1
    76    28    73    1
    77    28    74    1
    78    29    75    1
    79    29    76    1
    80    29    77    1
