@<TRIPOS>MOLECULE
IMPHY017547
 36 35 0 0 0
SMALL
GASTEIGER

@<TRIPOS>ATOM
      1 C           8.0622   -0.0000    0.0000 C.3     1  UNL1       -0.0245
      2 C           7.1962    0.5000    0.0000 C.2     1  UNL1       -0.0270
      3 C           8.9282    0.5000    0.0000 C.3     1  UNL1       -0.0516
      4 C           7.1962    1.5000    0.0000 C.3     1  UNL1       -0.0270
      5 C           9.7942   -0.0000    0.0000 C.3     1  UNL1       -0.0650
      6 C           8.0622    2.0000    0.0000 C.3     1  UNL1       -0.0610
      7 C           6.3301   -0.0000    0.0000 C.1     1  UNL1       -0.1083
      8 C           5.4641   -0.5000    0.0000 C.2     1  UNL1        0.0439
      9 C           5.4641   -1.5000    0.0000 C.3     1  UNL1       -0.0153
     10 C           4.5981   -2.0000    0.0000 C.3     1  UNL1       -0.0601
     11 C           4.5981   -0.0000    0.0000 C.1     1  UNL1       -0.0624
     12 C           2.8660    1.0000    0.0000 C.3     1  UNL1        0.0067
     13 C           3.7320    0.5000    0.0000 C.1     1  UNL1       -0.0970
     14 C           2.0000    0.5000    0.0000 C.3     1  UNL1       -0.0543
     15 H           7.6636   -0.4749    0.0000 H       1  UNL1        0.0316
     16 H           8.4607   -0.4749    0.0000 H       1  UNL1        0.0316
     17 H           9.3267    0.9749    0.0000 H       1  UNL1        0.0266
     18 H           8.5297    0.9749    0.0000 H       1  UNL1        0.0266
     19 H           6.9841    2.0826    0.0000 H       1  UNL1        0.0313
     20 H           6.5856    1.3923    0.0000 H       1  UNL1        0.0313
     21 H           9.4842   -0.5369    0.0000 H       1  UNL1        0.0230
     22 H          10.3312   -0.3100    0.0000 H       1  UNL1        0.0230
     23 H          10.1042    0.5369    0.0000 H       1  UNL1        0.0230
     24 H           8.3722    1.4631    0.0000 H       1  UNL1        0.0233
     25 H           8.5991    2.3100    0.0000 H       1  UNL1        0.0233
     26 H           7.7522    2.5369    0.0000 H       1  UNL1        0.0233
     27 H           5.6762   -2.0826    0.0000 H       1  UNL1        0.0323
     28 H           6.0747   -1.3923    0.0000 H       1  UNL1        0.0323
     29 H           4.2881   -1.4631    0.0000 H       1  UNL1        0.0233
     30 H           4.0611   -2.3100    0.0000 H       1  UNL1        0.0233
     31 H           4.9081   -2.5369    0.0000 H       1  UNL1        0.0233
     32 H           3.2646    1.4750    0.0000 H       1  UNL1        0.0395
     33 H           2.4675    1.4750    0.0000 H       1  UNL1        0.0395
     34 H           1.6900    1.0369    0.0000 H       1  UNL1        0.0239
     35 H           1.4631    0.1900    0.0000 H       1  UNL1        0.0239
     36 H           2.3100   -0.0369    0.0000 H       1  UNL1        0.0239
@<TRIPOS>BOND
     1     1     2    1
     2     1     3    1
     3     1    15    1
     4     1    16    1
     5     2     4    1
     6     2     7    2
     7     3     5    1
     8     3    17    1
     9     3    18    1
    10     4     6    1
    11     4    19    1
    12     4    20    1
    13     5    21    1
    14     5    22    1
    15     5    23    1
    16     6    24    1
    17     6    25    1
    18     6    26    1
    19     7     8    2
    20     8     9    1
    21     8    11    1
    22     9    10    1
    23     9    27    1
    24     9    28    1
    25    10    29    1
    26    10    30    1
    27    10    31    1
    28    11    13    3
    29    12    13    1
    30    12    14    1
    31    12    32    1
    32    12    33    1
    33    14    34    1
    34    14    35    1
    35    14    36    1
