@<TRIPOS>MOLECULE
IMPHY001364
 122 127 0 0 0
SMALL
GASTEIGER

@<TRIPOS>ATOM
      1 O          12.2583   -1.7193    0.0000 O.3     1  UNL1       -0.3335
      2 O          13.2583   -2.7193    0.0000 O.3     1  UNL1       -0.3096
      3 O          11.5263   -2.7193    0.0000 O.3     1  UNL1       -0.3384
      4 O          14.5184   -0.4592    0.0000 O.3     1  UNL1       -0.4500
      5 O          12.7583    0.8196    0.0000 O.3     1  UNL1       -0.3852
      6 O          13.2583   -4.7193    0.0000 O.3     1  UNL1       -0.4537
      7 O          14.4173   -3.0065    0.0000 O.3     1  UNL1       -0.4560
      8 O          11.5263   -5.7193    0.0000 O.3     1  UNL1       -0.3853
      9 O           9.7942   -4.7193    0.0000 O.3     1  UNL1       -0.3864
     10 O          10.7903    0.5189    0.0000 O.3     1  UNL1       -0.4589
     11 O           8.9282   -3.2193    0.0000 O.3     1  UNL1       -0.4589
     12 O          13.9832    1.1881    0.0000 O.2     1  UNL1       -0.2456
     13 O          12.3923   -6.2193    0.0000 O.2     1  UNL1       -0.2512
     14 O          15.5763   -4.2936    0.0000 O.2     1  UNL1       -0.2456
     15 O           9.0961    0.1588    0.0000 O.2     1  UNL1       -0.2456
     16 O           8.0622   -1.7193    0.0000 O.2     1  UNL1       -0.2456
     17 O          19.6895    3.0422    0.0000 O.3     1  UNL1       -0.5068
     18 O          20.0351   -0.2788    0.0000 O.3     1  UNL1       -0.5068
     19 O           7.8487    6.0277    0.0000 O.3     1  UNL1       -0.5068
     20 O           2.8660   -2.7193    0.0000 O.3     1  UNL1       -0.4914
     21 O           2.8660   -4.7193    0.0000 O.3     1  UNL1       -0.5033
     22 C          13.2583   -1.7193    0.0000 C.3     1  UNL1        0.2481
     23 C          13.5673   -0.7682    0.0000 C.3     1  UNL1        0.1884
     24 C          12.7583   -0.1804    0.0000 C.3     1  UNL1        0.1266
     25 C          11.9493   -0.7682    0.0000 C.3     1  UNL1        0.1255
     26 C          12.3923   -3.2193    0.0000 C.3     1  UNL1        0.2025
     27 C          12.3923   -4.2193    0.0000 C.3     1  UNL1        0.1817
     28 C          14.2094   -2.0283    0.0000 C.3     1  UNL1        0.1504
     29 C          11.5263   -4.7193    0.0000 C.3     1  UNL1        0.1252
     30 C          10.6603   -4.2193    0.0000 C.3     1  UNL1        0.1140
     31 C          10.6603   -3.2193    0.0000 C.3     1  UNL1        0.1241
     32 C          10.9983   -0.4592    0.0000 C.3     1  UNL1        0.1215
     33 C           9.7942   -2.7193    0.0000 C.3     1  UNL1        0.1215
     34 C          14.7263    0.5189    0.0000 C.2     1  UNL1        0.3325
     35 C          13.2583   -5.7193    0.0000 C.2     1  UNL1        0.3044
     36 C          15.3684   -3.3155    0.0000 C.2     1  UNL1        0.3321
     37 C           9.8393    0.8279    0.0000 C.2     1  UNL1        0.3320
     38 C          15.6774    0.8279    0.0000 C.2     1  UNL1        0.0231
     39 C          14.1244   -6.2193    0.0000 C.3     1  UNL1        0.0332
     40 C           8.0622   -2.7193    0.0000 C.2     1  UNL1        0.3320
     41 C          16.1115   -2.6463    0.0000 C.2     1  UNL1        0.0231
     42 C           9.6314    1.8061    0.0000 C.2     1  UNL1        0.0231
     43 C          15.8853    1.8061    0.0000 C.2     1  UNL1       -0.0478
     44 C           7.1962   -3.2193    0.0000 C.2     1  UNL1        0.0231
     45 C          17.0626   -2.9554    0.0000 C.2     1  UNL1       -0.0478
     46 C          16.8363    2.1151    0.0000 C.ar    1  UNL1       -0.0246
     47 C           8.6803    2.1151    0.0000 C.2     1  UNL1       -0.0478
     48 C          17.8057   -2.2862    0.0000 C.ar    1  UNL1       -0.0246
     49 C           6.3301   -2.7193    0.0000 C.2     1  UNL1       -0.0477
     50 C          17.5795    1.4460    0.0000 C.ar    1  UNL1       -0.0511
     51 C          17.0443    3.0933    0.0000 C.ar    1  UNL1       -0.0511
     52 C           8.4724    3.0933    0.0000 C.ar    1  UNL1       -0.0246
     53 C           5.4641   -3.2193    0.0000 C.ar    1  UNL1       -0.0211
     54 C          18.7568   -2.5952    0.0000 C.ar    1  UNL1       -0.0511
     55 C          17.5978   -1.3081    0.0000 C.ar    1  UNL1       -0.0511
     56 C          18.5305    1.7550    0.0000 C.ar    1  UNL1       -0.0196
     57 C          17.9953    3.4023    0.0000 C.ar    1  UNL1       -0.0196
     58 C           9.2156    3.7624    0.0000 C.ar    1  UNL1       -0.0511
     59 C           7.5214    3.4023    0.0000 C.ar    1  UNL1       -0.0511
     60 C          18.7385    2.7331    0.0000 C.ar    1  UNL1        0.1169
     61 C          19.4999   -1.9261    0.0000 C.ar    1  UNL1       -0.0196
     62 C          18.3409   -0.6390    0.0000 C.ar    1  UNL1       -0.0196
     63 C           4.5981   -2.7193    0.0000 C.ar    1  UNL1       -0.0092
     64 C           5.4641   -4.2193    0.0000 C.ar    1  UNL1       -0.0509
     65 C          19.2920   -0.9480    0.0000 C.ar    1  UNL1        0.1169
     66 C           9.0076    4.7405    0.0000 C.ar    1  UNL1       -0.0196
     67 C           7.3134    4.3804    0.0000 C.ar    1  UNL1       -0.0196
     68 C           8.0566    5.0496    0.0000 C.ar    1  UNL1        0.1169
     69 C           3.7320   -3.2193    0.0000 C.ar    1  UNL1        0.1618
     70 C           4.5981   -4.7193    0.0000 C.ar    1  UNL1       -0.0160
     71 C           3.7320   -4.2193    0.0000 C.ar    1  UNL1        0.1585
     72 C           2.0000   -3.2193    0.0000 C.3     1  UNL1        0.0790
     73 H          14.0058   -1.2066    0.0000 H       1  UNL1        0.0817
     74 H          13.3108    0.1010    0.0000 H       1  UNL1        0.0659
     75 H          11.5109   -1.2066    0.0000 H       1  UNL1        0.0658
     76 H          12.9292   -3.5293    0.0000 H       1  UNL1        0.0950
     77 H          12.3923   -4.8393    0.0000 H       1  UNL1        0.0813
     78 H          14.8290   -2.0067    0.0000 H       1  UNL1        0.0753
     79 H          14.2957   -1.4143    0.0000 H       1  UNL1        0.0753
     80 H          10.9893   -5.0293    0.0000 H       1  UNL1        0.0659
     81 H          10.1233   -3.9093    0.0000 H       1  UNL1        0.0648
     82 H          10.6603   -2.5993    0.0000 H       1  UNL1        0.0658
     83 H          10.3786   -0.4809    0.0000 H       1  UNL1        0.0725
     84 H          10.9120   -1.0732    0.0000 H       1  UNL1        0.0725
     85 H          13.2953    1.1296    0.0000 H       1  UNL1        0.2101
     86 H          10.1928   -2.2443    0.0000 H       1  UNL1        0.0725
     87 H           9.3957   -2.2443    0.0000 H       1  UNL1        0.0725
     88 H          10.9893   -6.0293    0.0000 H       1  UNL1        0.2101
     89 H           9.7942   -5.3393    0.0000 H       1  UNL1        0.2100
     90 H          16.1381    0.4131    0.0000 H       1  UNL1        0.0689
     91 H          13.8144   -6.7562    0.0000 H       1  UNL1        0.0342
     92 H          14.6613   -6.5293    0.0000 H       1  UNL1        0.0342
     93 H          14.4344   -5.6824    0.0000 H       1  UNL1        0.0342
     94 H          15.9826   -2.0399    0.0000 H       1  UNL1        0.0689
     95 H          10.0921    2.2210    0.0000 H       1  UNL1        0.0689
     96 H          15.4245    2.2210    0.0000 H       1  UNL1        0.0626
     97 H           7.1962   -3.8393    0.0000 H       1  UNL1        0.0689
     98 H          17.1915   -3.5618    0.0000 H       1  UNL1        0.0626
     99 H           8.2196    1.7002    0.0000 H       1  UNL1        0.0626
    100 H           6.3301   -2.0993    0.0000 H       1  UNL1        0.0626
    101 H          17.4506    0.8395    0.0000 H       1  UNL1        0.0625
    102 H          16.5835    3.5081    0.0000 H       1  UNL1        0.0625
    103 H          18.8857   -3.2017    0.0000 H       1  UNL1        0.0625
    104 H          17.0081   -1.1165    0.0000 H       1  UNL1        0.0625
    105 H          18.9913    1.3401    0.0000 H       1  UNL1        0.0654
    106 H          18.1242    4.0087    0.0000 H       1  UNL1        0.0654
    107 H           9.8052    3.5708    0.0000 H       1  UNL1        0.0625
    108 H           7.0606    2.9874    0.0000 H       1  UNL1        0.0625
    109 H          20.0896   -2.1177    0.0000 H       1  UNL1        0.0654
    110 H          18.2120   -0.0325    0.0000 H       1  UNL1        0.0654
    111 H           4.5981   -2.0993    0.0000 H       1  UNL1        0.0661
    112 H           6.0010   -4.5293    0.0000 H       1  UNL1        0.0625
    113 H           9.4684    5.1554    0.0000 H       1  UNL1        0.0654
    114 H           6.7238    4.5720    0.0000 H       1  UNL1        0.0654
    115 H           4.5981   -5.3393    0.0000 H       1  UNL1        0.0655
    116 H          19.8184    3.6486    0.0000 H       1  UNL1        0.2921
    117 H          20.6248   -0.4704    0.0000 H       1  UNL1        0.2921
    118 H           7.2590    6.2193    0.0000 H       1  UNL1        0.2921
    119 H           2.8660   -5.3393    0.0000 H       1  UNL1        0.2923
    120 H           1.6900   -2.6824    0.0000 H       1  UNL1        0.0660
    121 H           1.4631   -3.5293    0.0000 H       1  UNL1        0.0660
    122 H           2.3100   -3.7562    0.0000 H       1  UNL1        0.0660
@<TRIPOS>BOND
     1     1    22    1
     2     1    25    1
     3    22     2    1
     4    26     2    1
     5     3    26    1
     6     3    31    1
     7    23     4    1
     8     4    34    1
     9    24     5    1
    10     5    85    1
    11    27     6    1
    12     6    35    1
    13     7    28    1
    14     7    36    1
    15    29     8    1
    16     8    88    1
    17    30     9    1
    18     9    89    1
    19    10    32    1
    20    10    37    1
    21    11    33    1
    22    11    40    1
    23    12    34    2
    24    13    35    2
    25    14    36    2
    26    15    37    2
    27    16    40    2
    28    17    60    1
    29    17   116    1
    30    18    65    1
    31    18   117    1
    32    19    68    1
    33    19   118    1
    34    20    69    1
    35    20    72    1
    36    21    71    1
    37    21   119    1
    38    22    23    1
    39    22    28    1
    40    23    24    1
    41    23    73    1
    42    24    25    1
    43    24    74    1
    44    25    32    1
    45    25    75    1
    46    26    27    1
    47    26    76    1
    48    27    29    1
    49    27    77    1
    50    28    78    1
    51    28    79    1
    52    29    30    1
    53    29    80    1
    54    30    31    1
    55    30    81    1
    56    31    33    1
    57    31    82    1
    58    32    83    1
    59    32    84    1
    60    33    86    1
    61    33    87    1
    62    34    38    1
    63    35    39    1
    64    36    41    1
    65    37    42    1
    66    38    43    2
    67    38    90    1
    68    39    91    1
    69    39    92    1
    70    39    93    1
    71    40    44    1
    72    41    45    2
    73    41    94    1
    74    42    47    2
    75    42    95    1
    76    43    46    1
    77    43    96    1
    78    44    49    2
    79    44    97    1
    80    45    48    1
    81    45    98    1
    82    46    50   ar
    83    46    51   ar
    84    47    52    1
    85    47    99    1
    86    48    54   ar
    87    48    55   ar
    88    49    53    1
    89    49   100    1
    90    50    56   ar
    91    50   101    1
    92    51    57   ar
    93    51   102    1
    94    52    58   ar
    95    52    59   ar
    96    53    63   ar
    97    53    64   ar
    98    54    61   ar
    99    54   103    1
   100    55    62   ar
   101    55   104    1
   102    56    60   ar
   103    56   105    1
   104    57    60   ar
   105    57   106    1
   106    58    66   ar
   107    58   107    1
   108    59    67   ar
   109    59   108    1
   110    61    65   ar
   111    61   109    1
   112    62    65   ar
   113    62   110    1
   114    63    69   ar
   115    63   111    1
   116    64    70   ar
   117    64   112    1
   118    66    68   ar
   119    66   113    1
   120    67    68   ar
   121    67   114    1
   122    69    71   ar
   123    70    71   ar
   124    70   115    1
   125    72   120    1
   126    72   121    1
   127    72   122    1
