@<TRIPOS>MOLECULE
IMPHY015954
 164 163 0 0 0
SMALL
GASTEIGER

@<TRIPOS>ATOM
      1 C          24.5167   -0.2500    0.0000 C.3     1  UNL1       -0.0531
      2 C          25.3827    0.2500    0.0000 C.3     1  UNL1       -0.0531
      3 C          23.6506    0.2500    0.0000 C.3     1  UNL1       -0.0531
      4 C          26.2487   -0.2500    0.0000 C.3     1  UNL1       -0.0531
      5 C          22.7846   -0.2500    0.0000 C.3     1  UNL1       -0.0531
      6 C          27.1147    0.2500    0.0000 C.3     1  UNL1       -0.0531
      7 C          21.9186    0.2500    0.0000 C.3     1  UNL1       -0.0531
      8 C          27.9808   -0.2500    0.0000 C.3     1  UNL1       -0.0531
      9 C          21.0526   -0.2500    0.0000 C.3     1  UNL1       -0.0531
     10 C          28.8468    0.2500    0.0000 C.3     1  UNL1       -0.0531
     11 C          20.1865    0.2500    0.0000 C.3     1  UNL1       -0.0531
     12 C          29.7128   -0.2500    0.0000 C.3     1  UNL1       -0.0531
     13 C          19.3205   -0.2500    0.0000 C.3     1  UNL1       -0.0531
     14 C          30.5788    0.2500    0.0000 C.3     1  UNL1       -0.0531
     15 C          18.4545    0.2500    0.0000 C.3     1  UNL1       -0.0531
     16 C          31.4449   -0.2500    0.0000 C.3     1  UNL1       -0.0531
     17 C          17.5885   -0.2500    0.0000 C.3     1  UNL1       -0.0531
     18 C          32.3109    0.2500    0.0000 C.3     1  UNL1       -0.0531
     19 C          16.7224    0.2500    0.0000 C.3     1  UNL1       -0.0531
     20 C          33.1769   -0.2500    0.0000 C.3     1  UNL1       -0.0531
     21 C          15.8564   -0.2500    0.0000 C.3     1  UNL1       -0.0531
     22 C          34.0429    0.2500    0.0000 C.3     1  UNL1       -0.0531
     23 C          14.9904    0.2500    0.0000 C.3     1  UNL1       -0.0531
     24 C          34.9090   -0.2500    0.0000 C.3     1  UNL1       -0.0531
     25 C          14.1244   -0.2500    0.0000 C.3     1  UNL1       -0.0531
     26 C          35.7750    0.2500    0.0000 C.3     1  UNL1       -0.0531
     27 C          13.2583    0.2500    0.0000 C.3     1  UNL1       -0.0531
     28 C          36.6410   -0.2500    0.0000 C.3     1  UNL1       -0.0531
     29 C          12.3923   -0.2500    0.0000 C.3     1  UNL1       -0.0531
     30 C          37.5070    0.2500    0.0000 C.3     1  UNL1       -0.0531
     31 C          11.5263    0.2500    0.0000 C.3     1  UNL1       -0.0531
     32 C          38.3731   -0.2500    0.0000 C.3     1  UNL1       -0.0531
     33 C          10.6603   -0.2500    0.0000 C.3     1  UNL1       -0.0531
     34 C          39.2391    0.2500    0.0000 C.3     1  UNL1       -0.0531
     35 C           9.7942    0.2500    0.0000 C.3     1  UNL1       -0.0531
     36 C          40.1051   -0.2500    0.0000 C.3     1  UNL1       -0.0531
     37 C           8.9282   -0.2500    0.0000 C.3     1  UNL1       -0.0531
     38 C          40.9711    0.2500    0.0000 C.3     1  UNL1       -0.0531
     39 C           8.0622    0.2500    0.0000 C.3     1  UNL1       -0.0531
     40 C          41.8372   -0.2500    0.0000 C.3     1  UNL1       -0.0531
     41 C           7.1962   -0.2500    0.0000 C.3     1  UNL1       -0.0531
     42 C          42.7032    0.2500    0.0000 C.3     1  UNL1       -0.0531
     43 C           6.3301    0.2500    0.0000 C.3     1  UNL1       -0.0531
     44 C          43.5692   -0.2500    0.0000 C.3     1  UNL1       -0.0531
     45 C           5.4641   -0.2500    0.0000 C.3     1  UNL1       -0.0531
     46 C          44.4352    0.2500    0.0000 C.3     1  UNL1       -0.0531
     47 C           4.5981    0.2500    0.0000 C.3     1  UNL1       -0.0531
     48 C          45.3013   -0.2500    0.0000 C.3     1  UNL1       -0.0531
     49 C           3.7320   -0.2500    0.0000 C.3     1  UNL1       -0.0533
     50 C          46.1673    0.2500    0.0000 C.3     1  UNL1       -0.0533
     51 C           2.8660    0.2500    0.0000 C.3     1  UNL1       -0.0559
     52 C          47.0333   -0.2500    0.0000 C.3     1  UNL1       -0.0559
     53 C           2.0000   -0.2500    0.0000 C.3     1  UNL1       -0.0653
     54 C          47.8993    0.2500    0.0000 C.3     1  UNL1       -0.0653
     55 H          24.1181   -0.7249    0.0000 H       1  UNL1        0.0265
     56 H          24.9152   -0.7249    0.0000 H       1  UNL1        0.0265
     57 H          25.7812    0.7249    0.0000 H       1  UNL1        0.0265
     58 H          24.9842    0.7249    0.0000 H       1  UNL1        0.0265
     59 H          24.0492    0.7249    0.0000 H       1  UNL1        0.0265
     60 H          23.2521    0.7249    0.0000 H       1  UNL1        0.0265
     61 H          25.8502   -0.7249    0.0000 H       1  UNL1        0.0265
     62 H          26.6472   -0.7249    0.0000 H       1  UNL1        0.0265
     63 H          22.3861   -0.7249    0.0000 H       1  UNL1        0.0265
     64 H          23.1831   -0.7249    0.0000 H       1  UNL1        0.0265
     65 H          27.5133    0.7249    0.0000 H       1  UNL1        0.0265
     66 H          26.7162    0.7249    0.0000 H       1  UNL1        0.0265
     67 H          22.3171    0.7249    0.0000 H       1  UNL1        0.0265
     68 H          21.5201    0.7249    0.0000 H       1  UNL1        0.0265
     69 H          27.5822   -0.7249    0.0000 H       1  UNL1        0.0265
     70 H          28.3793   -0.7249    0.0000 H       1  UNL1        0.0265
     71 H          20.6540   -0.7249    0.0000 H       1  UNL1        0.0265
     72 H          21.4511   -0.7249    0.0000 H       1  UNL1        0.0265
     73 H          29.2453    0.7249    0.0000 H       1  UNL1        0.0265
     74 H          28.4483    0.7249    0.0000 H       1  UNL1        0.0265
     75 H          20.5851    0.7249    0.0000 H       1  UNL1        0.0265
     76 H          19.7880    0.7249    0.0000 H       1  UNL1        0.0265
     77 H          29.3143   -0.7249    0.0000 H       1  UNL1        0.0265
     78 H          30.1113   -0.7249    0.0000 H       1  UNL1        0.0265
     79 H          18.9220   -0.7249    0.0000 H       1  UNL1        0.0265
     80 H          19.7190   -0.7249    0.0000 H       1  UNL1        0.0265
     81 H          30.9774    0.7249    0.0000 H       1  UNL1        0.0265
     82 H          30.1803    0.7249    0.0000 H       1  UNL1        0.0265
     83 H          18.8530    0.7249    0.0000 H       1  UNL1        0.0265
     84 H          18.0560    0.7249    0.0000 H       1  UNL1        0.0265
     85 H          31.0463   -0.7249    0.0000 H       1  UNL1        0.0265
     86 H          31.8434   -0.7249    0.0000 H       1  UNL1        0.0265
     87 H          17.1899   -0.7249    0.0000 H       1  UNL1        0.0265
     88 H          17.9870   -0.7249    0.0000 H       1  UNL1        0.0265
     89 H          32.7094    0.7249    0.0000 H       1  UNL1        0.0265
     90 H          31.9124    0.7249    0.0000 H       1  UNL1        0.0265
     91 H          17.1210    0.7249    0.0000 H       1  UNL1        0.0265
     92 H          16.3239    0.7249    0.0000 H       1  UNL1        0.0265
     93 H          32.7784   -0.7249    0.0000 H       1  UNL1        0.0265
     94 H          33.5754   -0.7249    0.0000 H       1  UNL1        0.0265
     95 H          15.4579   -0.7249    0.0000 H       1  UNL1        0.0265
     96 H          16.2549   -0.7249    0.0000 H       1  UNL1        0.0265
     97 H          34.4415    0.7249    0.0000 H       1  UNL1        0.0265
     98 H          33.6444    0.7249    0.0000 H       1  UNL1        0.0265
     99 H          15.3889    0.7249    0.0000 H       1  UNL1        0.0265
    100 H          14.5919    0.7249    0.0000 H       1  UNL1        0.0265
    101 H          34.5104   -0.7249    0.0000 H       1  UNL1        0.0265
    102 H          35.3075   -0.7249    0.0000 H       1  UNL1        0.0265
    103 H          13.7258   -0.7249    0.0000 H       1  UNL1        0.0265
    104 H          14.5229   -0.7249    0.0000 H       1  UNL1        0.0265
    105 H          36.1735    0.7249    0.0000 H       1  UNL1        0.0265
    106 H          35.3765    0.7249    0.0000 H       1  UNL1        0.0265
    107 H          13.6569    0.7249    0.0000 H       1  UNL1        0.0265
    108 H          12.8598    0.7249    0.0000 H       1  UNL1        0.0265
    109 H          36.2425   -0.7249    0.0000 H       1  UNL1        0.0265
    110 H          37.0395   -0.7249    0.0000 H       1  UNL1        0.0265
    111 H          11.9938   -0.7249    0.0000 H       1  UNL1        0.0265
    112 H          12.7908   -0.7249    0.0000 H       1  UNL1        0.0265
    113 H          37.9056    0.7249    0.0000 H       1  UNL1        0.0265
    114 H          37.1085    0.7249    0.0000 H       1  UNL1        0.0265
    115 H          11.9248    0.7249    0.0000 H       1  UNL1        0.0265
    116 H          11.1278    0.7249    0.0000 H       1  UNL1        0.0265
    117 H          37.9745   -0.7249    0.0000 H       1  UNL1        0.0265
    118 H          38.7716   -0.7249    0.0000 H       1  UNL1        0.0265
    119 H          10.2617   -0.7249    0.0000 H       1  UNL1        0.0265
    120 H          11.0588   -0.7249    0.0000 H       1  UNL1        0.0265
    121 H          39.6376    0.7249    0.0000 H       1  UNL1        0.0265
    122 H          38.8406    0.7249    0.0000 H       1  UNL1        0.0265
    123 H          10.1928    0.7249    0.0000 H       1  UNL1        0.0265
    124 H           9.3957    0.7249    0.0000 H       1  UNL1        0.0265
    125 H          39.7066   -0.7249    0.0000 H       1  UNL1        0.0265
    126 H          40.5036   -0.7249    0.0000 H       1  UNL1        0.0265
    127 H           8.5297   -0.7249    0.0000 H       1  UNL1        0.0265
    128 H           9.3267   -0.7249    0.0000 H       1  UNL1        0.0265
    129 H          41.3697    0.7249    0.0000 H       1  UNL1        0.0265
    130 H          40.5726    0.7249    0.0000 H       1  UNL1        0.0265
    131 H           8.4607    0.7249    0.0000 H       1  UNL1        0.0265
    132 H           7.6636    0.7249    0.0000 H       1  UNL1        0.0265
    133 H          41.4386   -0.7249    0.0000 H       1  UNL1        0.0265
    134 H          42.2357   -0.7249    0.0000 H       1  UNL1        0.0265
    135 H           6.7976   -0.7249    0.0000 H       1  UNL1        0.0265
    136 H           7.5947   -0.7249    0.0000 H       1  UNL1        0.0265
    137 H          43.1017    0.7249    0.0000 H       1  UNL1        0.0265
    138 H          42.3047    0.7249    0.0000 H       1  UNL1        0.0265
    139 H           6.7287    0.7249    0.0000 H       1  UNL1        0.0265
    140 H           5.9316    0.7249    0.0000 H       1  UNL1        0.0265
    141 H          43.1707   -0.7249    0.0000 H       1  UNL1        0.0265
    142 H          43.9677   -0.7249    0.0000 H       1  UNL1        0.0265
    143 H           5.0656   -0.7249    0.0000 H       1  UNL1        0.0265
    144 H           5.8626   -0.7249    0.0000 H       1  UNL1        0.0265
    145 H          44.8338    0.7249    0.0000 H       1  UNL1        0.0265
    146 H          44.0367    0.7249    0.0000 H       1  UNL1        0.0265
    147 H           4.9966    0.7249    0.0000 H       1  UNL1        0.0265
    148 H           4.1996    0.7249    0.0000 H       1  UNL1        0.0265
    149 H          44.9027   -0.7249    0.0000 H       1  UNL1        0.0265
    150 H          45.6998   -0.7249    0.0000 H       1  UNL1        0.0265
    151 H           3.3335   -0.7249    0.0000 H       1  UNL1        0.0265
    152 H           4.1306   -0.7249    0.0000 H       1  UNL1        0.0265
    153 H          46.5658    0.7249    0.0000 H       1  UNL1        0.0265
    154 H          45.7688    0.7249    0.0000 H       1  UNL1        0.0265
    155 H           3.2646    0.7249    0.0000 H       1  UNL1        0.0263
    156 H           2.4675    0.7249    0.0000 H       1  UNL1        0.0263
    157 H          46.6348   -0.7249    0.0000 H       1  UNL1        0.0263
    158 H          47.4319   -0.7249    0.0000 H       1  UNL1        0.0263
    159 H           1.6900    0.2869    0.0000 H       1  UNL1        0.0230
    160 H           1.4631   -0.5600    0.0000 H       1  UNL1        0.0230
    161 H           2.3100   -0.7869    0.0000 H       1  UNL1        0.0230
    162 H          48.2093   -0.2869    0.0000 H       1  UNL1        0.0230
    163 H          48.4363    0.5600    0.0000 H       1  UNL1        0.0230
    164 H          47.5893    0.7869    0.0000 H       1  UNL1        0.0230
@<TRIPOS>BOND
     1     1     2    1
     2     1     3    1
     3     1    55    1
     4     1    56    1
     5     2     4    1
     6     2    57    1
     7     2    58    1
     8     3     5    1
     9     3    59    1
    10     3    60    1
    11     4     6    1
    12     4    61    1
    13     4    62    1
    14     5     7    1
    15     5    63    1
    16     5    64    1
    17     6     8    1
    18     6    65    1
    19     6    66    1
    20     7     9    1
    21     7    67    1
    22     7    68    1
    23     8    10    1
    24     8    69    1
    25     8    70    1
    26     9    11    1
    27     9    71    1
    28     9    72    1
    29    10    12    1
    30    10    73    1
    31    10    74    1
    32    11    13    1
    33    11    75    1
    34    11    76    1
    35    12    14    1
    36    12    77    1
    37    12    78    1
    38    13    15    1
    39    13    79    1
    40    13    80    1
    41    14    16    1
    42    14    81    1
    43    14    82    1
    44    15    17    1
    45    15    83    1
    46    15    84    1
    47    16    18    1
    48    16    85    1
    49    16    86    1
    50    17    19    1
    51    17    87    1
    52    17    88    1
    53    18    20    1
    54    18    89    1
    55    18    90    1
    56    19    21    1
    57    19    91    1
    58    19    92    1
    59    20    22    1
    60    20    93    1
    61    20    94    1
    62    21    23    1
    63    21    95    1
    64    21    96    1
    65    22    24    1
    66    22    97    1
    67    22    98    1
    68    23    25    1
    69    23    99    1
    70    23   100    1
    71    24    26    1
    72    24   101    1
    73    24   102    1
    74    25    27    1
    75    25   103    1
    76    25   104    1
    77    26    28    1
    78    26   105    1
    79    26   106    1
    80    27    29    1
    81    27   107    1
    82    27   108    1
    83    28    30    1
    84    28   109    1
    85    28   110    1
    86    29    31    1
    87    29   111    1
    88    29   112    1
    89    30    32    1
    90    30   113    1
    91    30   114    1
    92    31    33    1
    93    31   115    1
    94    31   116    1
    95    32    34    1
    96    32   117    1
    97    32   118    1
    98    33    35    1
    99    33   119    1
   100    33   120    1
   101    34    36    1
   102    34   121    1
   103    34   122    1
   104    35    37    1
   105    35   123    1
   106    35   124    1
   107    36    38    1
   108    36   125    1
   109    36   126    1
   110    37    39    1
   111    37   127    1
   112    37   128    1
   113    38    40    1
   114    38   129    1
   115    38   130    1
   116    39    41    1
   117    39   131    1
   118    39   132    1
   119    40    42    1
   120    40   133    1
   121    40   134    1
   122    41    43    1
   123    41   135    1
   124    41   136    1
   125    42    44    1
   126    42   137    1
   127    42   138    1
   128    43    45    1
   129    43   139    1
   130    43   140    1
   131    44    46    1
   132    44   141    1
   133    44   142    1
   134    45    47    1
   135    45   143    1
   136    45   144    1
   137    46    48    1
   138    46   145    1
   139    46   146    1
   140    47    49    1
   141    47   147    1
   142    47   148    1
   143    48    50    1
   144    48   149    1
   145    48   150    1
   146    49    51    1
   147    49   151    1
   148    49   152    1
   149    50    52    1
   150    50   153    1
   151    50   154    1
   152    51    53    1
   153    51   155    1
   154    51   156    1
   155    52    54    1
   156    52   157    1
   157    52   158    1
   158    53   159    1
   159    53   160    1
   160    53   161    1
   161    54   162    1
   162    54   163    1
   163    54   164    1
