@<TRIPOS>MOLECULE
IMPHY010848
 87 96 0 0 0
SMALL
GASTEIGER

@<TRIPOS>ATOM
      1 O          19.3430   -1.2122    0.0000 O.3     1  UNL1       -0.3345
      2 O          13.8795    0.4985    0.0000 O.3     1  UNL1       -0.2231
      3 O          12.9357    2.0753    0.0000 O.3     1  UNL1       -0.3310
      4 O          21.1772   -0.5110    0.0000 O.3     1  UNL1       -0.1953
      5 O          12.0639    3.5720    0.0000 O.3     1  UNL1       -0.3257
      6 O          11.2075    1.0687    0.0000 O.3     1  UNL1       -0.2149
      7 O           9.4716    2.0620    0.0000 O.3     1  UNL1       -0.2175
      8 O           9.4639    4.0620    0.0000 O.3     1  UNL1       -0.3258
      9 O          20.6951   -5.0487    0.0000 O.3     1  UNL1       -0.3286
     10 O          12.0562    5.5720    0.0000 O.3     1  UNL1       -0.2176
     11 O           8.6037    2.5586    0.0000 O.3     1  UNL1       -0.3257
     12 O          20.6936   -6.7807    0.0000 O.3     1  UNL1       -0.3256
     13 O           7.7280    5.0553    0.0000 O.3     1  UNL1       -0.3232
     14 O          18.6951   -5.0469    0.0000 O.3     1  UNL1       -0.2149
     15 O           5.9998    4.0486    0.0000 O.3     1  UNL1       -0.3256
     16 O          17.6936   -6.7781    0.0000 O.3     1  UNL1       -0.2174
     17 O           6.0075    2.0486    0.0000 O.3     1  UNL1       -0.2177
     18 O          18.6921   -8.5110    0.0000 O.3     1  UNL1       -0.2176
     19 O           6.3970    6.1636    0.0000 O.3     1  UNL1       -0.3256
     20 O           8.6114    0.5587    0.0000 O.3     1  UNL1       -0.2176
     21 O          21.6921   -8.5136    0.0000 O.3     1  UNL1       -0.2176
     22 O           5.1396    2.5453    0.0000 O.3     1  UNL1       -0.3256
     23 O           9.0077    6.5923    0.0000 O.3     1  UNL1       -0.2149
     24 O           4.2639    5.0419    0.0000 O.3     1  UNL1       -0.2149
     25 O           8.3164    8.4691    0.0000 O.3     1  UNL1       -0.2174
     26 O           6.3454    8.8088    0.0000 O.3     1  UNL1       -0.2176
     27 O           2.5357    4.0353    0.0000 O.3     1  UNL1       -0.2174
     28 O           2.5434    2.0353    0.0000 O.3     1  UNL1       -0.2176
     29 O           4.7201    8.2101    0.0000 O.3     1  UNL1       -0.2176
     30 O           3.4152    0.5386    0.0000 O.3     1  UNL1       -0.2176
     31 C          16.5436    1.0226    0.0000 C.3     1  UNL1        0.0026
     32 C          16.5436    2.0226    0.0000 C.3     1  UNL1        0.0002
     33 C          17.4096    0.5226    0.0000 C.3     1  UNL1        0.0026
     34 C          15.6496    2.5573    0.0000 C.3     1  UNL1        0.0045
     35 C          18.2756    1.0226    0.0000 C.3     1  UNL1        0.0026
     36 C          14.7436    2.0434    0.0000 C.3     1  UNL1        0.0532
     37 C          19.0126    0.3555    0.0000 C.3     1  UNL1        0.0321
     38 C          18.6075   -0.5523    0.0000 C.3     1  UNL1        0.1178
     39 C          17.6188   -0.4492    0.0000 C.3     1  UNL1        0.0296
     40 C          17.4096    2.5226    0.0000 C.3     1  UNL1        0.0000
     41 C          15.6496    0.4880    0.0000 C.3     1  UNL1        0.0330
     42 C          18.2756    2.0226    0.0000 C.3     1  UNL1        0.0001
     43 C          14.7436    1.0018    0.0000 C.3     1  UNL1        0.1541
     44 C          15.6747    3.6420    0.0000 C.3     1  UNL1        0.0002
     45 C          19.9950    0.2488    0.0000 C.3     1  UNL1        0.0567
     46 C          13.7998    2.5787    0.0000 C.3     1  UNL1        0.1201
     47 C          16.5195    3.0506    0.0000 C.3     1  UNL1        0.0002
     48 C          20.1988   -0.7181    0.0000 C.3     1  UNL1        0.2187
     49 C          13.8737    1.5501    0.0000 C.3     1  UNL1        0.0050
     50 C          14.7436    4.1989    0.0000 C.3     1  UNL1        0.0025
     51 C          13.7998    3.6637    0.0000 C.3     1  UNL1        0.0297
     52 C          20.6661    0.9902    0.0000 C.3     1  UNL1        0.0052
     53 C          20.6981   -1.5846    0.0000 C.3     1  UNL1        0.0592
     54 C          20.1973   -2.4502    0.0000 C.3     1  UNL1        0.0076
     55 C          12.0677    2.5720    0.0000 C.3     1  UNL1        0.2694
     56 C          11.2036    2.0687    0.0000 C.3     1  UNL1        0.2404
     57 C          20.6966   -3.3166    0.0000 C.3     1  UNL1        0.0299
     58 C          10.3357    2.5653    0.0000 C.3     1  UNL1        0.2167
     59 C          11.1959    4.0686    0.0000 C.3     1  UNL1        0.1803
     60 C          10.3318    3.5653    0.0000 C.3     1  UNL1        0.1804
     61 C          20.1958   -4.1822    0.0000 C.3     1  UNL1        0.1448
     62 C          21.6966   -3.3175    0.0000 C.3     1  UNL1        0.0026
     63 C          11.1921    5.0686    0.0000 C.3     1  UNL1        0.2141
     64 C           8.5998    3.5586    0.0000 C.3     1  UNL1        0.2662
     65 C          20.1943   -5.9143    0.0000 C.3     1  UNL1        0.2695
     66 C           7.7319    4.0553    0.0000 C.3     1  UNL1        0.2035
     67 C          19.1943   -5.9134    0.0000 C.3     1  UNL1        0.2406
     68 C           6.8678    3.5520    0.0000 C.3     1  UNL1        0.1826
     69 C          18.6936   -6.7790    0.0000 C.3     1  UNL1        0.2198
     70 C           7.7396    2.0553    0.0000 C.3     1  UNL1        0.1834
     71 C           6.8716    2.5520    0.0000 C.3     1  UNL1        0.2111
     72 C          20.1928   -7.6463    0.0000 C.3     1  UNL1        0.1835
     73 C          19.1928   -7.6454    0.0000 C.3     1  UNL1        0.2144
     74 C           7.7434    1.0553    0.0000 C.3     1  UNL1        0.2142
     75 C          20.6921   -8.5128    0.0000 C.3     1  UNL1        0.2142
     76 C           7.3824    5.9937    0.0000 C.3     1  UNL1        0.2696
     77 C           5.1357    3.5453    0.0000 C.3     1  UNL1        0.2695
     78 C           8.0222    6.7622    0.0000 C.3     1  UNL1        0.2406
     79 C           4.2678    4.0419    0.0000 C.3     1  UNL1        0.2406
     80 C           7.6765    7.7005    0.0000 C.3     1  UNL1        0.2198
     81 C           6.0512    7.1019    0.0000 C.3     1  UNL1        0.1835
     82 C           6.6911    7.8704    0.0000 C.3     1  UNL1        0.2144
     83 C           3.4037    3.5386    0.0000 C.3     1  UNL1        0.2198
     84 C           4.2755    2.0420    0.0000 C.3     1  UNL1        0.1835
     85 C           3.4075    2.5386    0.0000 C.3     1  UNL1        0.2144
     86 C           5.0658    7.2718    0.0000 C.3     1  UNL1        0.2142
     87 C           4.2793    1.0420    0.0000 C.3     1  UNL1        0.2142
@<TRIPOS>BOND
     1     1    38    1
     2     1    48    1
     3     2    43    1
     4     3    46    1
     5     4    48    1
     6     5    55    1
     7     5    59    1
     8     9    61    1
     9    10    63    1
    10    11    64    1
    11    11    70    1
    12    12    65    1
    13    12    72    1
    14    19    76    1
    15    19    81    1
    16    20    74    1
    17    21    75    1
    18    22    77    1
    19    22    84    1
    20    29    86    1
    21    30    87    1
    22    31    32    1
    23    31    33    1
    24    31    41    1
    25    32    34    1
    26    32    40    1
    27    33    35    1
    28    33    39    1
    29    34    36    1
    30    34    44    1
    31    34    47    1
    32    35    37    1
    33    35    42    1
    34    36    43    1
    35    36    46    1
    36    36    49    1
    37    37    38    1
    38    37    45    1
    39    38    39    1
    40    40    42    1
    41    41    43    1
    42    44    50    1
    43    45    48    1
    44    45    52    1
    45    46    51    1
    46    48    53    1
    47    50    51    1
    48    53    54    1
    49    54    57    1
    50    55     3    1
    51    55    56    1
    52    56     6    1
    53    56    58    1
    54    57    61    1
    55    57    62    1
    56    58     7    1
    57    58    60    1
    58    59    60    1
    59    59    63    1
    60    60     8    1
    61    64     8    1
    62    64    66    1
    63    65     9    1
    64    65    67    1
    65    66    13    1
    66    66    68    1
    67    67    14    1
    68    67    69    1
    69    68    15    1
    70    68    71    1
    71    69    16    1
    72    69    73    1
    73    70    71    1
    74    70    74    1
    75    71    17    1
    76    72    73    1
    77    72    75    1
    78    73    18    1
    79    76    13    1
    80    76    78    1
    81    77    15    1
    82    77    79    1
    83    78    23    1
    84    78    80    1
    85    79    24    1
    86    79    83    1
    87    80    25    1
    88    80    82    1
    89    81    82    1
    90    81    86    1
    91    82    26    1
    92    83    27    1
    93    83    85    1
    94    84    85    1
    95    84    87    1
    96    85    28    1
