@<TRIPOS>MOLECULE
IMPHY011195
 23 26 0 0 0
SMALL
GASTEIGER

@<TRIPOS>ATOM
      1 O           2.3389   -0.5766    0.0000 O.3     1  UNL1       -0.3627
      2 C           1.1694   -1.2425    0.0000 C.3     1  UNL1        0.0972
      3 C           2.3389   -1.9166    0.0000 C.3     1  UNL1        0.1145
      4 C           3.5246   -1.2425    0.0000 C.3     1  UNL1        0.0650
      5 C           4.6859   -1.9247    0.0000 C.3     1  UNL1        0.1174
      6 O           5.9690   -1.5024    0.0000 O.3     1  UNL1       -0.4599
      7 C           6.7730   -2.5988    0.0000 C.2     1  UNL1        0.3157
      8 C           5.9690   -3.6951    0.0000 C.3     1  UNL1        0.0984
      9 C           4.6859   -3.2809    0.0000 C.3     1  UNL1        0.0235
     10 C           3.5246   -3.9469    0.0000 C.3     1  UNL1        0.0252
     11 C           2.3389   -3.2809    0.0000 C.3     1  UNL1        0.0968
     12 O           2.3389   -4.6453    0.0000 O.3     1  UNL1       -0.3629
     13 C           1.1694   -3.9469    0.0000 C.3     1  UNL1        0.1115
     14 C           0.0000   -3.2809    0.0000 C.3     1  UNL1        0.0314
     15 C           0.0000   -1.9166    0.0000 C.3     1  UNL1        0.0280
     16 C           3.3622   -2.5338    0.0000 C.3     1  UNL1        0.0318
     17 O           8.1211   -2.5988    0.0000 O.2     1  UNL1       -0.2501
     18 C           6.3832   -4.9945    0.0000 C.3     1  UNL1        0.0114
     19 C           0.4873   -5.1326    0.0000 C.3     1  UNL1        0.0317
     20 H           1.1694    0.0000    0.0000 H       1  UNL1        0.0631
     21 H           1.2344   -2.7125    0.0000 H       1  UNL1        0.0631
     22 H           4.6940   -4.4910    0.0000 H       1  UNL1        0.0354
     23 H           4.6859   -0.6659    0.0000 H       1  UNL1        0.0744
@<TRIPOS>BOND
     1     1     3    1
     2     1     2    1
     3     2     3    1
     4     2    15    1
     5     2    20    1
     6     3     4    1
     7     3    16    1
     8     4     5    1
     9     5     6    1
    10     5     9    1
    11     5    23    1
    12     6     7    1
    13     7     8    1
    14     7    17    2
    15     8     9    1
    16     8    18    1
    17     9    10    1
    18     9    22    1
    19    10    11    1
    20    11    12    1
    21    11    13    1
    22    11    21    1
    23    12    13    1
    24    13    14    1
    25    13    19    1
    26    14    15    1
