@<TRIPOS>MOLECULE
IMPHY015902
 10 9 0 0 0
SMALL
GASTEIGER

@<TRIPOS>ATOM
      1 S           2.5369    0.2500    0.0000 S.3     1  UNL1       -0.1508
      2 C           5.1350   -0.2500    0.0000 C.3     1  UNL1       -0.0461
      3 C           4.2690    0.2500    0.0000 C.2     1  UNL1       -0.0811
      4 C           3.4030   -0.2500    0.0000 C.2     1  UNL1       -0.0360
      5 H           4.8250   -0.7869    0.0000 H       1  UNL1        0.0272
      6 H           5.6720   -0.5600    0.0000 H       1  UNL1        0.0272
      7 H           5.4450    0.2869    0.0000 H       1  UNL1        0.0272
      8 H           4.2690    0.8700    0.0000 H       1  UNL1        0.0574
      9 H           3.4030   -0.8700    0.0000 H       1  UNL1        0.0684
     10 H           2.0000   -0.0600    0.0000 H       1  UNL1        0.1065
@<TRIPOS>BOND
     1     1     4    1
     2     1    10    1
     3     2     3    1
     4     2     5    1
     5     2     6    1
     6     2     7    1
     7     3     4    2
     8     3     8    1
     9     4     9    1
