@<TRIPOS>MOLECULE
IMPHY016173
 42 43 0 0 0
SMALL
GASTEIGER

@<TRIPOS>ATOM
      1 O           3.2320   -1.6178    0.0000 O.3     1  UNL1       -0.3877
      2 C           4.5981   -0.2517    0.0000 C.3     1  UNL1        0.0182
      3 C           3.7320   -0.7517    0.0000 C.3     1  UNL1        0.0751
      4 C           4.5981    0.7483    0.0000 C.2     1  UNL1       -0.0592
      5 C           5.4920    1.2829    0.0000 C.3     1  UNL1       -0.0133
      6 C           5.4920   -0.7864    0.0000 C.3     1  UNL1       -0.0412
      7 C           2.8660   -0.2517    0.0000 C.3     1  UNL1       -0.0110
      8 C           6.3981    0.7691    0.0000 C.3     1  UNL1       -0.0441
      9 C           6.3981   -0.2725    0.0000 C.3     1  UNL1       -0.0514
     10 C           2.8660    0.7483    0.0000 C.3     1  UNL1       -0.0293
     11 C           4.9402   -1.1914    0.0000 C.3     1  UNL1       -0.0532
     12 C           3.7320    1.2483    0.0000 C.2     1  UNL1       -0.0833
     13 C           4.2320   -1.6178    0.0000 C.3     1  UNL1       -0.0350
     14 C           5.9820    2.1547    0.0000 C.3     1  UNL1       -0.0561
     15 C           4.9820    2.1431    0.0000 C.3     1  UNL1       -0.0561
     16 C           2.0000   -0.7517    0.0000 C.3     1  UNL1       -0.0595
     17 H           5.0874   -1.2562    0.0000 H       1  UNL1        0.0274
     18 H           5.8856   -1.2654    0.0000 H       1  UNL1        0.0274
     19 H           2.8660   -0.8717    0.0000 H       1  UNL1        0.0329
     20 H           7.0089    0.6630    0.0000 H       1  UNL1        0.0273
     21 H           6.6071    1.3528    0.0000 H       1  UNL1        0.0273
     22 H           6.6071   -0.8562    0.0000 H       1  UNL1        0.0266
     23 H           7.0089   -0.1664    0.0000 H       1  UNL1        0.0266
     24 H           2.6540    1.3309    0.0000 H       1  UNL1        0.0311
     25 H           2.2554    0.6406    0.0000 H       1  UNL1        0.0311
     26 H           4.3576   -1.4035    0.0000 H       1  UNL1        0.0239
     27 H           5.1523   -1.7740    0.0000 H       1  UNL1        0.0239
     28 H           5.5228   -0.9793    0.0000 H       1  UNL1        0.0239
     29 H           3.7320    1.8683    0.0000 H       1  UNL1        0.0572
     30 H           3.6951   -1.9278    0.0000 H       1  UNL1        0.0258
     31 H           4.5420   -2.1547    0.0000 H       1  UNL1        0.0258
     32 H           4.7690   -1.3078    0.0000 H       1  UNL1        0.0258
     33 H           6.5225    1.8509    0.0000 H       1  UNL1        0.0238
     34 H           6.2857    2.6952    0.0000 H       1  UNL1        0.0238
     35 H           5.4415    2.4585    0.0000 H       1  UNL1        0.0238
     36 H           5.5154    2.4593    0.0000 H       1  UNL1        0.0238
     37 H           4.6658    2.6764    0.0000 H       1  UNL1        0.0238
     38 H           4.4487    1.8269    0.0000 H       1  UNL1        0.0238
     39 H           1.6900   -0.2148    0.0000 H       1  UNL1        0.0233
     40 H           1.4631   -1.0617    0.0000 H       1  UNL1        0.0233
     41 H           2.3100   -1.2887    0.0000 H       1  UNL1        0.0233
     42 H           3.5420   -2.1547    0.0000 H       1  UNL1        0.2102
@<TRIPOS>BOND
     1     1     3    1
     2     1    42    1
     3     2     3    1
     4     2     4    1
     5     2     6    1
     6     2    11    1
     7     3     7    1
     8     3    13    1
     9     4     5    1
    10     4    12    2
    11     5     8    1
    12     5    14    1
    13     5    15    1
    14     6     9    1
    15     6    17    1
    16     6    18    1
    17     7    10    1
    18     7    16    1
    19     7    19    1
    20     8     9    1
    21     8    20    1
    22     8    21    1
    23     9    22    1
    24     9    23    1
    25    10    12    1
    26    10    24    1
    27    10    25    1
    28    11    26    1
    29    11    27    1
    30    11    28    1
    31    12    29    1
    32    13    30    1
    33    13    31    1
    34    13    32    1
    35    14    33    1
    36    14    34    1
    37    14    35    1
    38    15    36    1
    39    15    37    1
    40    15    38    1
    41    16    39    1
    42    16    40    1
    43    16    41    1
