@<TRIPOS>MOLECULE
IMPHY012675
 27 26 0 0 0
SMALL
GASTEIGER

@<TRIPOS>ATOM
      1 S           2.8660    0.6900    0.0000 S.3     1  UNL1       -0.1495
      2 S           3.7320   -0.8100    0.0000 S.3     1  UNL1       -0.1495
      3 O           5.4641   -0.8100    0.0000 O.2     1  UNL1       -0.2758
      4 O           8.9282    0.1900    0.0000 O.3     1  UNL1       -0.3935
      5 N           6.3301    0.6900    0.0000 N.am    1  UNL1       -0.3131
      6 C           4.5981    0.6900    0.0000 C.3     1  UNL1        0.0449
      7 C           3.7320    0.1900    0.0000 C.3     1  UNL1        0.0586
      8 C           5.4641    0.1900    0.0000 C.2     1  UNL1        0.2149
      9 C           7.1962    0.1900    0.0000 C.3     1  UNL1        0.0348
     10 C           8.0622    0.6900    0.0000 C.3     1  UNL1        0.0597
     11 C           2.0000    0.1900    0.0000 C.3     1  UNL1       -0.0170
     12 C           2.8660   -1.3100    0.0000 C.3     1  UNL1       -0.0170
     13 H           4.9966    1.1650    0.0000 H       1  UNL1        0.0377
     14 H           4.1996    1.1650    0.0000 H       1  UNL1        0.0377
     15 H           3.7320    0.8100    0.0000 H       1  UNL1        0.0529
     16 H           6.7976   -0.2849    0.0000 H       1  UNL1        0.0484
     17 H           7.5947   -0.2849    0.0000 H       1  UNL1        0.0484
     18 H           6.3301    1.3100    0.0000 H       1  UNL1        0.1488
     19 H           8.4607    1.1650    0.0000 H       1  UNL1        0.0573
     20 H           7.6636    1.1650    0.0000 H       1  UNL1        0.0573
     21 H           1.6900    0.7269    0.0000 H       1  UNL1        0.0341
     22 H           1.4631   -0.1200    0.0000 H       1  UNL1        0.0341
     23 H           2.3100   -0.3469    0.0000 H       1  UNL1        0.0341
     24 H           2.5560   -0.7731    0.0000 H       1  UNL1        0.0341
     25 H           2.3291   -1.6200    0.0000 H       1  UNL1        0.0341
     26 H           3.1760   -1.8469    0.0000 H       1  UNL1        0.0341
     27 H           9.4651    0.5000    0.0000 H       1  UNL1        0.2095
@<TRIPOS>BOND
     1     1     7    1
     2     1    11    1
     3     2     7    1
     4     2    12    1
     5     3     8    2
     6     4    10    1
     7     4    27    1
     8     5     8   am
     9     5     9    1
    10     5    18    1
    11     6     7    1
    12     6     8    1
    13     6    13    1
    14     6    14    1
    15     7    15    1
    16     9    10    1
    17     9    16    1
    18     9    17    1
    19    10    19    1
    20    10    20    1
    21    11    21    1
    22    11    22    1
    23    11    23    1
    24    12    24    1
    25    12    25    1
    26    12    26    1
