@<TRIPOS>MOLECULE
IMPHY004013
 58 61 0 0 0
SMALL
GASTEIGER

@<TRIPOS>ATOM
      1 O           7.9288   -1.4507    0.0000 O.3     1  UNL1       -0.3876
      2 O           7.0628    2.0493    0.0000 O.3     1  UNL1       -0.3886
      3 O           5.3307    1.0493    0.0000 O.3     1  UNL1       -0.3889
      4 O           8.5179    2.5489    0.0000 O.2     1  UNL1       -0.2974
      5 O           2.5357   -2.5030    0.0000 O.3     1  UNL1       -0.3915
      6 C           7.9288   -0.4507    0.0000 C.3     1  UNL1        0.0780
      7 C           7.9288    0.5493    0.0000 C.3     1  UNL1        0.0347
      8 C           7.0628   -0.9507    0.0000 C.3     1  UNL1       -0.0020
      9 C           6.1968   -0.4507    0.0000 C.3     1  UNL1        0.0023
     10 C           7.0628    1.0493    0.0000 C.3     1  UNL1        0.0899
     11 C           5.2868   -0.9575    0.0000 C.3     1  UNL1       -0.0053
     12 C           8.8750    0.8540    0.0000 C.3     1  UNL1        0.0278
     13 C           6.1968    0.5493    0.0000 C.3     1  UNL1        0.0856
     14 C           8.8750   -0.7554    0.0000 C.3     1  UNL1       -0.0224
     15 C           9.4586    0.0493    0.0000 C.3     1  UNL1       -0.0402
     16 C           7.0789   -1.9922    0.0000 C.3     1  UNL1       -0.0287
     17 C           7.9288    1.5493    0.0000 C.3     1  UNL1       -0.0538
     18 C           5.2787   -1.9991    0.0000 C.2     1  UNL1       -0.0648
     19 C           4.3599   -0.3935    0.0000 C.3     1  UNL1       -0.0412
     20 C           6.1808   -2.5200    0.0000 C.2     1  UNL1       -0.0838
     21 C           5.2945    0.0424    0.0000 C.3     1  UNL1       -0.0555
     22 C           4.3433   -2.5489    0.0000 C.3     1  UNL1       -0.0051
     23 C           9.1857    1.8046    0.0000 C.2     1  UNL1        0.1341
     24 C           3.4120   -0.9214    0.0000 C.3     1  UNL1       -0.0258
     25 C           3.4037   -2.0064    0.0000 C.3     1  UNL1        0.0590
     26 C          10.1642    2.0108    0.0000 C.3     1  UNL1       -0.0058
     27 H           7.8022   -1.3700    0.0000 H       1  UNL1        0.0335
     28 H           6.9329   -0.0257    0.0000 H       1  UNL1        0.0339
     29 H           6.5259    1.3593    0.0000 H       1  UNL1        0.0626
     30 H           9.4875    0.9502    0.0000 H       1  UNL1        0.0384
     31 H           5.6598    0.2393    0.0000 H       1  UNL1        0.0622
     32 H           8.6240   -1.3223    0.0000 H       1  UNL1        0.0293
     33 H           9.4124   -1.0647    0.0000 H       1  UNL1        0.0293
     34 H           9.9195   -0.3654    0.0000 H       1  UNL1        0.0273
     35 H           9.9195    0.4640    0.0000 H       1  UNL1        0.0273
     36 H           7.2969   -2.5726    0.0000 H       1  UNL1        0.0311
     37 H           7.6880   -1.8767    0.0000 H       1  UNL1        0.0311
     38 H           8.5488    1.5493    0.0000 H       1  UNL1        0.0237
     39 H           7.9288    2.1693    0.0000 H       1  UNL1        0.0237
     40 H           7.3088    1.5493    0.0000 H       1  UNL1        0.0237
     41 H           4.7681    0.0732    0.0000 H       1  UNL1        0.0274
     42 H           3.9700    0.0886    0.0000 H       1  UNL1        0.0274
     43 H           6.1832   -3.1399    0.0000 H       1  UNL1        0.0572
     44 H           5.9145    0.0377    0.0000 H       1  UNL1        0.0238
     45 H           5.2993    0.6624    0.0000 H       1  UNL1        0.0238
     46 H           4.6745    0.0472    0.0000 H       1  UNL1        0.0238
     47 H           8.4658   -1.7607    0.0000 H       1  UNL1        0.2102
     48 H           3.9460   -3.0248    0.0000 H       1  UNL1        0.0335
     49 H           4.7443   -3.0218    0.0000 H       1  UNL1        0.0335
     50 H           3.2075   -0.3361    0.0000 H       1  UNL1        0.0290
     51 H           2.8004   -1.0228    0.0000 H       1  UNL1        0.0290
     52 H           3.4025   -2.6264    0.0000 H       1  UNL1        0.0596
     53 H           6.5259    2.3593    0.0000 H       1  UNL1        0.2099
     54 H           5.3307    1.6693    0.0000 H       1  UNL1        0.2099
     55 H          10.2921    1.4041    0.0000 H       1  UNL1        0.0306
     56 H          10.7709    2.1386    0.0000 H       1  UNL1        0.0306
     57 H          10.0364    2.6174    0.0000 H       1  UNL1        0.0306
     58 H           2.0000   -2.1910    0.0000 H       1  UNL1        0.2098
@<TRIPOS>BOND
     1     6     1    1
     2     1    47    1
     3    10     2    1
     4     2    53    1
     5    13     3    1
     6     3    54    1
     7     4    23    2
     8    25     5    1
     9     5    58    1
    10     6     7    1
    11     6     8    1
    12     6    14    1
    13     7    10    1
    14     7    12    1
    15     7    17    1
    16     8     9    1
    17     8    16    1
    18     8    27    1
    19     9    11    1
    20     9    13    1
    21     9    28    1
    22    10    13    1
    23    10    29    1
    24    11    18    1
    25    11    19    1
    26    11    21    1
    27    12    15    1
    28    12    23    1
    29    12    30    1
    30    13    31    1
    31    14    15    1
    32    14    32    1
    33    14    33    1
    34    15    34    1
    35    15    35    1
    36    16    20    1
    37    16    36    1
    38    16    37    1
    39    17    38    1
    40    17    39    1
    41    17    40    1
    42    18    20    2
    43    18    22    1
    44    19    24    1
    45    19    41    1
    46    19    42    1
    47    20    43    1
    48    21    44    1
    49    21    45    1
    50    21    46    1
    51    22    25    1
    52    22    48    1
    53    22    49    1
    54    23    26    1
    55    24    25    1
    56    24    50    1
    57    24    51    1
    58    25    52    1
    59    26    55    1
    60    26    56    1
    61    26    57    1
