@<TRIPOS>MOLECULE
IMPHY009614
 46 50 0 0 0
SMALL
GASTEIGER

@<TRIPOS>ATOM
      1 O           5.8776    0.5374    0.0000 O.3     1  UNL1       -0.4561
      2 O           2.1162   -1.7746    0.0000 O.3     1  UNL1       -0.3843
      3 O           4.8007    1.7658    0.0000 O.3     1  UNL1       -0.4804
      4 O           7.7473    1.4978    0.0000 O.2     1  UNL1       -0.2492
      5 O           6.5267    1.6203    0.0000 O.2     1  UNL1       -0.2507
      6 O           8.8358   -0.6863    0.0000 O.3     1  UNL1       -0.4796
      7 O           9.0494    0.5814    0.0000 O.2     1  UNL1       -0.2494
      8 C           4.8095   -0.3508    0.0000 C.3     1  UNL1       -0.0028
      9 C           5.1114   -1.2180    0.0000 C.3     1  UNL1        0.0065
     10 C           6.0235   -1.1965    0.0000 C.3     1  UNL1        0.1256
     11 C           6.2865   -0.3224    0.0000 C.3     1  UNL1        0.0426
     12 C           5.5377    0.1984    0.0000 C.3     1  UNL1        0.0709
     13 C           4.1135   -1.1832    0.0000 C.3     1  UNL1       -0.0130
     14 C           3.0606   -1.4458    0.0000 C.3     1  UNL1        0.0874
     15 C           3.9426   -0.0462    0.0000 C.3     1  UNL1       -0.0224
     16 C           4.6212   -1.9946    0.0000 C.3     1  UNL1       -0.0431
     17 C           7.2038   -0.1064    0.0000 C.3     1  UNL1        0.1888
     18 C           3.7088   -2.0958    0.0000 C.3     1  UNL1       -0.0197
     19 C           6.6612   -1.9110    0.0000 C.3     1  UNL1        0.0061
     20 C           3.1650   -0.5332    0.0000 C.2     1  UNL1       -0.0449
     21 C           7.4686    0.5374    0.0000 C.2     1  UNL1        0.3291
     22 C           5.6217    1.1949    0.0000 C.2     1  UNL1        0.3088
     23 C           7.8489   -0.7926    0.0000 C.2     1  UNL1       -0.0601
     24 C           7.5774   -1.6953    0.0000 C.2     1  UNL1       -0.0826
     25 C           8.1872    0.0748    0.0000 C.2     1  UNL1        0.3262
     26 C           2.3614    0.0619    0.0000 C.2     1  UNL1       -0.0967
     27 H           5.4171   -1.7574    0.0000 H       1  UNL1        0.0345
     28 H           6.4025    0.2866    0.0000 H       1  UNL1        0.0367
     29 H           4.9949    0.4980    0.0000 H       1  UNL1        0.0424
     30 H           4.0706   -1.8018    0.0000 H       1  UNL1        0.0302
     31 H           4.6886   -1.4148    0.0000 H       1  UNL1        0.0302
     32 H           4.2732    0.4783    0.0000 H       1  UNL1        0.0316
     33 H           3.5048    0.3928    0.0000 H       1  UNL1        0.0316
     34 H           4.5506   -2.6105    0.0000 H       1  UNL1        0.0270
     35 H           5.2060   -2.2005    0.0000 H       1  UNL1        0.0270
     36 H           3.1834   -2.4249    0.0000 H       1  UNL1        0.0296
     37 H           3.9127   -2.6813    0.0000 H       1  UNL1        0.0296
     38 H           6.1369   -2.2419    0.0000 H       1  UNL1        0.0346
     39 H           6.9010   -2.4828    0.0000 H       1  UNL1        0.0346
     40 H           8.4524   -0.6505    0.0000 H       1  UNL1        0.0585
     41 H           8.0023   -2.1468    0.0000 H       1  UNL1        0.0571
     42 H           2.0000   -2.3836    0.0000 H       1  UNL1        0.2106
     43 H           2.4318    0.6779    0.0000 H       1  UNL1        0.0535
     44 H           1.7927   -0.1851    0.0000 H       1  UNL1        0.0535
     45 H           4.8528    2.3836    0.0000 H       1  UNL1        0.2951
     46 H           9.4456   -0.5740    0.0000 H       1  UNL1        0.2951
@<TRIPOS>BOND
     1     1    10    1
     2     1    21    1
     3     2    14    1
     4     2    42    1
     5     3    22    1
     6     3    45    1
     7     4    21    2
     8     5    22    2
     9     6    25    1
    10     6    46    1
    11     7    25    2
    12     8     9    1
    13     8    12    1
    14     8    13    1
    15     8    15    1
    16     9    10    1
    17     9    16    1
    18     9    27    1
    19    10    11    1
    20    10    19    1
    21    11    12    1
    22    11    17    1
    23    11    28    1
    24    12    22    1
    25    12    29    1
    26    13    14    1
    27    13    30    1
    28    13    31    1
    29    14    18    1
    30    14    20    1
    31    15    20    1
    32    15    32    1
    33    15    33    1
    34    16    18    1
    35    16    34    1
    36    16    35    1
    37    17    21    1
    38    17    23    1
    39    17    25    1
    40    18    36    1
    41    18    37    1
    42    19    24    1
    43    19    38    1
    44    19    39    1
    45    20    26    2
    46    23    24    2
    47    23    40    1
    48    24    41    1
    49    26    43    1
    50    26    44    1
