@<TRIPOS>MOLECULE
IMPHY009422
 81 85 0 0 0
SMALL
GASTEIGER

@<TRIPOS>ATOM
      1 O           5.7726   -3.1206    0.0000 O.3     1  UNL1       -0.3911
      2 O          11.1246    3.0930    0.0000 O.3     1  UNL1       -0.3912
      3 O           3.9891   -3.0931    0.0000 O.3     1  UNL1       -0.3944
      4 C           7.5167   -0.0513    0.0000 C.3     1  UNL1       -0.0011
      5 C           6.6507   -0.5513    0.0000 C.3     1  UNL1        0.0009
      6 C           8.4106    1.4833    0.0000 C.3     1  UNL1       -0.0068
      7 C           9.3167    0.9695    0.0000 C.3     1  UNL1       -0.0244
      8 C           4.8666   -1.5998    0.0000 C.3     1  UNL1        0.0263
      9 C           4.8746   -0.5582    0.0000 C.3     1  UNL1       -0.0085
     10 C           7.5167    0.9487    0.0000 C.2     1  UNL1       -0.0566
     11 C           5.7847   -0.0513    0.0000 C.2     1  UNL1       -0.0590
     12 C           8.4106   -0.5860    0.0000 C.3     1  UNL1       -0.0428
     13 C           6.6667   -1.5928    0.0000 C.3     1  UNL1       -0.0163
     14 C           5.7687   -2.1206    0.0000 C.3     1  UNL1        0.0643
     15 C          10.2605    1.5047    0.0000 C.3     1  UNL1       -0.0053
     16 C           9.3167   -0.0722    0.0000 C.3     1  UNL1       -0.0480
     17 C           8.3856    2.5680    0.0000 C.3     1  UNL1       -0.0413
     18 C           3.9478    0.0059    0.0000 C.3     1  UNL1       -0.0406
     19 C           3.9312   -2.1495    0.0000 C.3     1  UNL1       -0.0419
     20 C           2.9999   -0.5220    0.0000 C.3     1  UNL1       -0.0343
     21 C           7.8588   -0.9910    0.0000 C.3     1  UNL1       -0.0550
     22 C           7.2935   -1.3174    0.0000 C.3     1  UNL1       -0.0549
     23 C          10.2605    2.5897    0.0000 C.3     1  UNL1        0.0607
     24 C           6.6507    1.4487    0.0000 C.2     1  UNL1       -0.0615
     25 C           9.3167    3.1250    0.0000 C.3     1  UNL1       -0.0256
     26 C           5.7847    0.9487    0.0000 C.2     1  UNL1       -0.0617
     27 C           2.9916   -1.6070    0.0000 C.3     1  UNL1       -0.0472
     28 C           7.5408    1.9766    0.0000 C.3     1  UNL1       -0.0555
     29 C           4.8589   -2.5997    0.0000 C.3     1  UNL1        0.0527
     30 C          11.2605    1.5009    0.0000 C.3     1  UNL1       -0.0572
     31 C          10.7572    0.6368    0.0000 C.3     1  UNL1       -0.0572
     32 C           2.0000   -0.5105    0.0000 C.3     1  UNL1       -0.0598
     33 C           2.5100    0.3497    0.0000 C.3     1  UNL1       -0.0598
     34 H          10.0512    0.5416    0.0000 H       1  UNL1        0.0315
     35 H           4.8910    0.2917    0.0000 H       1  UNL1        0.0353
     36 H           8.0060   -1.0558    0.0000 H       1  UNL1        0.0274
     37 H           8.8043   -1.0650    0.0000 H       1  UNL1        0.0274
     38 H           6.8848   -2.1732    0.0000 H       1  UNL1        0.0299
     39 H           7.2759   -1.4773    0.0000 H       1  UNL1        0.0299
     40 H           6.3074   -2.4275    0.0000 H       1  UNL1        0.0600
     41 H           9.5258   -0.6558    0.0000 H       1  UNL1        0.0269
     42 H           9.9276    0.0339    0.0000 H       1  UNL1        0.0269
     43 H           8.1631    3.1467    0.0000 H       1  UNL1        0.0274
     44 H           7.7773    2.4478    0.0000 H       1  UNL1        0.0274
     45 H           4.3560    0.4726    0.0000 H       1  UNL1        0.0276
     46 H           3.5579    0.4879    0.0000 H       1  UNL1        0.0276
     47 H           3.5339   -2.6255    0.0000 H       1  UNL1        0.0272
     48 H           4.3322   -2.6224    0.0000 H       1  UNL1        0.0272
     49 H           7.2762   -1.2031    0.0000 H       1  UNL1        0.0238
     50 H           8.0709   -1.5736    0.0000 H       1  UNL1        0.0238
     51 H           8.4414   -0.7789    0.0000 H       1  UNL1        0.0238
     52 H           6.8185   -1.7159    0.0000 H       1  UNL1        0.0238
     53 H           7.6920   -1.7923    0.0000 H       1  UNL1        0.0238
     54 H           7.7684   -0.9189    0.0000 H       1  UNL1        0.0238
     55 H          10.2569    3.2097    0.0000 H       1  UNL1        0.0599
     56 H           6.6507    2.0687    0.0000 H       1  UNL1        0.0618
     57 H           9.7103    3.6040    0.0000 H       1  UNL1        0.0290
     58 H           8.9121    3.5947    0.0000 H       1  UNL1        0.0290
     59 H           5.2477    1.2587    0.0000 H       1  UNL1        0.0617
     60 H           2.3816   -1.4962    0.0000 H       1  UNL1        0.0271
     61 H           2.7780   -2.1891    0.0000 H       1  UNL1        0.0271
     62 H           7.8466    2.5159    0.0000 H       1  UNL1        0.0238
     63 H           7.0015    2.2825    0.0000 H       1  UNL1        0.0238
     64 H           7.2349    1.4373    0.0000 H       1  UNL1        0.0238
     65 H           5.0665   -3.1840    0.0000 H       1  UNL1        0.0564
     66 H           5.4703   -2.4968    0.0000 H       1  UNL1        0.0564
     67 H          10.2190    0.3288    0.0000 H       1  UNL1        0.0236
     68 H          11.0651    0.0986    0.0000 H       1  UNL1        0.0236
     69 H          11.2953    0.9447    0.0000 H       1  UNL1        0.0236
     70 H          11.2581    0.8809    0.0000 H       1  UNL1        0.0236
     71 H          11.8805    1.4985    0.0000 H       1  UNL1        0.0236
     72 H          11.2629    2.1209    0.0000 H       1  UNL1        0.0236
     73 H           2.0072    0.1095    0.0000 H       1  UNL1        0.0235
     74 H           3.0505    0.6535    0.0000 H       1  UNL1        0.0235
     75 H           2.2062    0.8902    0.0000 H       1  UNL1        0.0235
     76 H           1.9695    0.0459    0.0000 H       1  UNL1        0.0235
     77 H           1.3800   -0.5033    0.0000 H       1  UNL1        0.0235
     78 H           1.9928   -1.1304    0.0000 H       1  UNL1        0.0235
     79 H           6.3107   -3.4285    0.0000 H       1  UNL1        0.2098
     80 H          11.1222    3.7130    0.0000 H       1  UNL1        0.2098
     81 H           3.9843   -3.7130    0.0000 H       1  UNL1        0.2094
@<TRIPOS>BOND
     1    14     1    1
     2     1    79    1
     3    23     2    1
     4     2    80    1
     5     3    29    1
     6     3    81    1
     7     4     5    1
     8     4    10    1
     9     4    12    1
    10     4    21    1
    11     5    11    1
    12     5    13    1
    13     5    22    1
    14     6     7    1
    15     6    10    1
    16     6    17    1
    17     6    28    1
    18     7    15    1
    19     7    16    1
    20     7    34    1
    21     8     9    1
    22     8    14    1
    23     8    19    1
    24     8    29    1
    25     9    11    1
    26     9    18    1
    27     9    35    1
    28    10    24    2
    29    11    26    2
    30    12    16    1
    31    12    36    1
    32    12    37    1
    33    13    14    1
    34    13    38    1
    35    13    39    1
    36    14    40    1
    37    15    23    1
    38    15    30    1
    39    15    31    1
    40    16    41    1
    41    16    42    1
    42    17    25    1
    43    17    43    1
    44    17    44    1
    45    18    20    1
    46    18    45    1
    47    18    46    1
    48    19    27    1
    49    19    47    1
    50    19    48    1
    51    20    27    1
    52    20    32    1
    53    20    33    1
    54    21    49    1
    55    21    50    1
    56    21    51    1
    57    22    52    1
    58    22    53    1
    59    22    54    1
    60    23    25    1
    61    23    55    1
    62    24    26    1
    63    24    56    1
    64    25    57    1
    65    25    58    1
    66    26    59    1
    67    27    60    1
    68    27    61    1
    69    28    62    1
    70    28    63    1
    71    28    64    1
    72    29    65    1
    73    29    66    1
    74    30    70    1
    75    30    71    1
    76    30    72    1
    77    31    67    1
    78    31    68    1
    79    31    69    1
    80    32    73    1
    81    32    77    1
    82    32    78    1
    83    33    74    1
    84    33    75    1
    85    33    76    1
