@<TRIPOS>MOLECULE
IMPHY008858
 56 55 0 0 0
SMALL
GASTEIGER

@<TRIPOS>ATOM
      1 O           9.7942   -1.2500    0.0000 O.2     1  UNL1       -0.2924
      2 O           2.8660   -0.2500    0.0000 O.3     1  UNL1       -0.4679
      3 O           3.7320    1.2500    0.0000 O.2     1  UNL1       -0.2509
      4 C          13.2583   -0.2500    0.0000 C.3     1  UNL1       -0.0528
      5 C          14.1244    0.2500    0.0000 C.3     1  UNL1       -0.0530
      6 C          12.3923    0.2500    0.0000 C.3     1  UNL1       -0.0490
      7 C          14.9904   -0.2500    0.0000 C.3     1  UNL1       -0.0531
      8 C          11.5263   -0.2500    0.0000 C.3     1  UNL1       -0.0249
      9 C           7.1962    0.2500    0.0000 C.3     1  UNL1       -0.0527
     10 C          15.8564    0.2500    0.0000 C.3     1  UNL1       -0.0533
     11 C           8.0622   -0.2500    0.0000 C.3     1  UNL1       -0.0460
     12 C           6.3301   -0.2500    0.0000 C.3     1  UNL1       -0.0525
     13 C           8.9282    0.2500    0.0000 C.3     1  UNL1        0.0101
     14 C          10.6603    0.2500    0.0000 C.2     1  UNL1       -0.0120
     15 C           5.4641    0.2500    0.0000 C.3     1  UNL1       -0.0430
     16 C          16.7224   -0.2500    0.0000 C.3     1  UNL1       -0.0559
     17 C           9.7942   -0.2500    0.0000 C.2     1  UNL1        0.1587
     18 C           4.5981   -0.2500    0.0000 C.3     1  UNL1        0.0449
     19 C          17.5885    0.2500    0.0000 C.3     1  UNL1       -0.0653
     20 C          10.6603    1.2500    0.0000 C.2     1  UNL1       -0.0922
     21 C           3.7320    0.2500    0.0000 C.2     1  UNL1        0.3068
     22 C           2.0000    0.2500    0.0000 C.3     1  UNL1        0.0817
     23 H          12.8598   -0.7249    0.0000 H       1  UNL1        0.0265
     24 H          13.6569   -0.7249    0.0000 H       1  UNL1        0.0265
     25 H          14.5229    0.7249    0.0000 H       1  UNL1        0.0265
     26 H          13.7258    0.7249    0.0000 H       1  UNL1        0.0265
     27 H          12.7908    0.7249    0.0000 H       1  UNL1        0.0268
     28 H          11.9938    0.7249    0.0000 H       1  UNL1        0.0268
     29 H          14.5919   -0.7249    0.0000 H       1  UNL1        0.0265
     30 H          15.3889   -0.7249    0.0000 H       1  UNL1        0.0265
     31 H          11.1278   -0.7249    0.0000 H       1  UNL1        0.0314
     32 H          11.9248   -0.7249    0.0000 H       1  UNL1        0.0314
     33 H           7.5947    0.7249    0.0000 H       1  UNL1        0.0265
     34 H           6.7976    0.7249    0.0000 H       1  UNL1        0.0265
     35 H           7.6636   -0.7249    0.0000 H       1  UNL1        0.0269
     36 H           8.4607   -0.7249    0.0000 H       1  UNL1        0.0269
     37 H          16.2549    0.7249    0.0000 H       1  UNL1        0.0265
     38 H          15.4579    0.7249    0.0000 H       1  UNL1        0.0265
     39 H           5.9316   -0.7249    0.0000 H       1  UNL1        0.0265
     40 H           6.7287   -0.7249    0.0000 H       1  UNL1        0.0265
     41 H           9.3267    0.7249    0.0000 H       1  UNL1        0.0345
     42 H           8.5297    0.7249    0.0000 H       1  UNL1        0.0345
     43 H           5.8626    0.7249    0.0000 H       1  UNL1        0.0270
     44 H           5.0656    0.7249    0.0000 H       1  UNL1        0.0270
     45 H          16.3239   -0.7249    0.0000 H       1  UNL1        0.0263
     46 H          17.1210   -0.7249    0.0000 H       1  UNL1        0.0263
     47 H           4.1996   -0.7249    0.0000 H       1  UNL1        0.0377
     48 H           4.9966   -0.7249    0.0000 H       1  UNL1        0.0377
     49 H          17.8985   -0.2869    0.0000 H       1  UNL1        0.0230
     50 H          18.1254    0.5600    0.0000 H       1  UNL1        0.0230
     51 H          17.2785    0.7869    0.0000 H       1  UNL1        0.0230
     52 H          11.1972    1.5600    0.0000 H       1  UNL1        0.0539
     53 H          10.1233    1.5600    0.0000 H       1  UNL1        0.0539
     54 H           2.3100    0.7869    0.0000 H       1  UNL1        0.0661
     55 H           1.4631    0.5600    0.0000 H       1  UNL1        0.0661
     56 H           1.6900   -0.2869    0.0000 H       1  UNL1        0.0661
@<TRIPOS>BOND
     1     1    17    2
     2     2    21    1
     3     2    22    1
     4     3    21    2
     5     4     5    1
     6     4     6    1
     7     4    23    1
     8     4    24    1
     9     5     7    1
    10     5    25    1
    11     5    26    1
    12     6     8    1
    13     6    27    1
    14     6    28    1
    15     7    10    1
    16     7    29    1
    17     7    30    1
    18     8    14    1
    19     8    31    1
    20     8    32    1
    21     9    11    1
    22     9    12    1
    23     9    33    1
    24     9    34    1
    25    10    16    1
    26    10    37    1
    27    10    38    1
    28    11    13    1
    29    11    35    1
    30    11    36    1
    31    12    15    1
    32    12    39    1
    33    12    40    1
    34    13    17    1
    35    13    41    1
    36    13    42    1
    37    14    17    1
    38    14    20    2
    39    15    18    1
    40    15    43    1
    41    15    44    1
    42    16    19    1
    43    16    45    1
    44    16    46    1
    45    18    21    1
    46    18    47    1
    47    18    48    1
    48    19    49    1
    49    19    50    1
    50    19    51    1
    51    20    52    1
    52    20    53    1
    53    22    54    1
    54    22    55    1
    55    22    56    1
