@<TRIPOS>MOLECULE
IMPHY006329
 29 30 0 0 0
SMALL
GASTEIGER

@<TRIPOS>ATOM
      1 O           2.0000    1.0000    0.0000 O.2     1  UNL1       -0.5061
      2 O           4.5981   -0.5000    0.0000 O.2     1  UNL1       -0.2872
      3 C           2.8660   -0.5000    0.0000 C.ar    1  UNL1        0.0165
      4 C           5.4641    1.0000    0.0000 C.ar    1  UNL1        0.0218
      5 C           2.8660    0.5000    0.0000 C.2     1  UNL1        0.1276
      6 C           4.5981    0.5000    0.0000 C.2     1  UNL1        0.1895
      7 C           3.7320    1.0000    0.0000 C.2     1  UNL1        0.0277
      8 C           2.0000   -1.0000    0.0000 C.ar    1  UNL1       -0.0511
      9 C           3.7320   -1.0000    0.0000 C.ar    1  UNL1       -0.0511
     10 C           6.3301    0.5000    0.0000 C.ar    1  UNL1       -0.0509
     11 C           5.4641    2.0000    0.0000 C.ar    1  UNL1       -0.0509
     12 C           2.0000   -2.0000    0.0000 C.ar    1  UNL1       -0.0611
     13 C           3.7320   -2.0000    0.0000 C.ar    1  UNL1       -0.0611
     14 C           7.1962    1.0000    0.0000 C.ar    1  UNL1       -0.0611
     15 C           6.3301    2.5000    0.0000 C.ar    1  UNL1       -0.0611
     16 C           2.8660   -2.5000    0.0000 C.ar    1  UNL1       -0.0617
     17 C           7.1962    2.0000    0.0000 C.ar    1  UNL1       -0.0617
     18 H           3.7320    1.6200    0.0000 H       1  UNL1        0.0693
     19 H           1.4631   -0.6900    0.0000 H       1  UNL1        0.0625
     20 H           4.2690   -0.6900    0.0000 H       1  UNL1        0.0625
     21 H           6.3301   -0.1200    0.0000 H       1  UNL1        0.0625
     22 H           4.9272    2.3100    0.0000 H       1  UNL1        0.0625
     23 H           1.4631   -2.3100    0.0000 H       1  UNL1        0.0618
     24 H           4.2690   -2.3100    0.0000 H       1  UNL1        0.0618
     25 H           7.7331    0.6900    0.0000 H       1  UNL1        0.0618
     26 H           6.3301    3.1200    0.0000 H       1  UNL1        0.0618
     27 H           2.8660   -3.1200    0.0000 H       1  UNL1        0.0618
     28 H           7.7331    2.3100    0.0000 H       1  UNL1        0.0618
     29 H           2.0000    1.6200    0.0000 H       1  UNL1        0.2922
@<TRIPOS>BOND
     1     1     5    1
     2     1    29    1
     3     2     6    2
     4     3     5    1
     5     3     8   ar
     6     3     9   ar
     7     4     6    1
     8     4    10   ar
     9     4    11   ar
    10     5     7    2
    11     6     7    1
    12     7    18    1
    13     8    12   ar
    14     8    19    1
    15     9    13   ar
    16     9    20    1
    17    10    14   ar
    18    10    21    1
    19    11    15   ar
    20    11    22    1
    21    12    16   ar
    22    12    23    1
    23    13    16   ar
    24    13    24    1
    25    14    17   ar
    26    14    25    1
    27    15    17   ar
    28    15    26    1
    29    16    27    1
    30    17    28    1
