@<TRIPOS>MOLECULE
IMPHY009335
 32 35 0 0 0
SMALL
GASTEIGER

@<TRIPOS>ATOM
      1 O           4.0536    1.6868    0.0000 O.3     1  UNL1       -0.2890
      2 O           5.0581   -1.5344    0.0000 O.3     1  UNL1       -0.4484
      3 O           6.4076   -2.6895    0.0000 O.2     1  UNL1       -0.2456
      4 N           3.6710    0.7630    0.0000 N.3     1  UNL1       -0.1800
      5 C           4.9775   -0.5436    0.0000 C.3     1  UNL1        0.1591
      6 C           4.0536   -0.1609    0.0000 C.3     1  UNL1        0.0800
      7 C           4.6115    0.7630    0.0000 C.3     1  UNL1        0.0249
      8 C           3.4324   -0.9970    0.0000 C.3     1  UNL1       -0.0310
      9 C           4.9775    2.0695    0.0000 C.3     1  UNL1        0.1027
     10 C           5.9014   -0.1609    0.0000 C.2     1  UNL1        0.0040
     11 C           2.3986   -0.8690    0.0000 C.3     1  UNL1       -0.0502
     12 C           2.6405    0.9148    0.0000 C.3     1  UNL1        0.0250
     13 C           2.0000    0.0934    0.0000 C.3     1  UNL1       -0.0379
     14 C           5.9014    1.6868    0.0000 C.2     1  UNL1       -0.0532
     15 C           6.2841    0.7630    0.0000 C.2     1  UNL1       -0.0560
     16 C           6.5450   -0.9185    0.0000 C.2     1  UNL1        0.0295
     17 C           6.0249   -1.7656    0.0000 C.2     1  UNL1        0.3332
     18 H           4.3789   -0.9462    0.0000 H       1  UNL1        0.0529
     19 H           4.1050    1.1205    0.0000 H       1  UNL1        0.0337
     20 H           5.2315    0.7630    0.0000 H       1  UNL1        0.0337
     21 H           3.2520   -1.5902    0.0000 H       1  UNL1        0.0282
     22 H           3.9859   -1.2762    0.0000 H       1  UNL1        0.0282
     23 H           4.9775    2.9195    0.0000 H       1  UNL1        0.0662
     24 H           1.7937   -1.0047    0.0000 H       1  UNL1        0.0266
     25 H           2.4288   -1.4882    0.0000 H       1  UNL1        0.0266
     26 H           2.8345    1.5037    0.0000 H       1  UNL1        0.0450
     27 H           2.0935    1.2068    0.0000 H       1  UNL1        0.0450
     28 H           1.5835    0.5526    0.0000 H       1  UNL1        0.0278
     29 H           1.4762   -0.2384    0.0000 H       1  UNL1        0.0278
     30 H           6.3398    2.1252    0.0000 H       1  UNL1        0.0598
     31 H           6.9041    0.7630    0.0000 H       1  UNL1        0.0619
     32 H           7.1632   -0.8709    0.0000 H       1  UNL1        0.0693
@<TRIPOS>BOND
     1     1     4    1
     2     1     9    1
     3     5     2    1
     4     2    17    1
     5     3    17    2
     6     4     6    1
     7     4    12    1
     8     5     6    1
     9     5     7    1
    10     5    10    1
    11     6     8    1
    12     6    18    1
    13     7     9    1
    14     7    19    1
    15     7    20    1
    16     8    11    1
    17     8    21    1
    18     8    22    1
    19     9    14    1
    20     9    23    1
    21    10    15    1
    22    10    16    2
    23    11    13    1
    24    11    24    1
    25    11    25    1
    26    12    13    1
    27    12    26    1
    28    12    27    1
    29    13    28    1
    30    13    29    1
    31    14    15    2
    32    14    30    1
    33    15    31    1
    34    16    17    1
    35    16    32    1
