@<TRIPOS>MOLECULE
IMPHY017571
 37 37 0 0 0
SMALL
GASTEIGER

@<TRIPOS>ATOM
      1 O           2.5369    3.5000    0.0000 O.2     1  UNL1       -0.2780
      2 N           5.1350   -2.0000    0.0000 N.pl3   1  UNL1       -0.3110
      3 N           6.8671    1.0000    0.0000 N.pl3   1  UNL1       -0.3110
      4 N           6.0010   -0.5000    0.0000 N.ar    1  UNL1       -0.1810
      5 N           5.1350    1.0000    0.0000 N.ar    1  UNL1       -0.1798
      6 N           4.2690   -0.5000    0.0000 N.ar    1  UNL1       -0.1798
      7 N           3.4030    1.0000    0.0000 N.pl3   1  UNL1       -0.2325
      8 N           3.4030    2.0000    0.0000 N.am    1  UNL1       -0.2368
      9 C           6.0010   -2.5000    0.0000 C.3     1  UNL1        0.0177
     10 C           7.7331    0.5000    0.0000 C.3     1  UNL1        0.0177
     11 C           6.0010   -3.5000    0.0000 C.3     1  UNL1       -0.0469
     12 C           6.8671   -2.0000    0.0000 C.3     1  UNL1       -0.0469
     13 C           8.5991    1.0000    0.0000 C.3     1  UNL1       -0.0469
     14 C           7.7331   -0.5000    0.0000 C.3     1  UNL1       -0.0469
     15 C           5.1350   -1.0000    0.0000 C.ar    1  UNL1        0.2213
     16 C           6.0010    0.5000    0.0000 C.ar    1  UNL1        0.2213
     17 C           4.2690    0.5000    0.0000 C.ar    1  UNL1        0.2377
     18 C           2.5369    2.5000    0.0000 C.2     1  UNL1        0.2161
     19 H           5.4641   -2.8100    0.0000 H       1  UNL1        0.0493
     20 H           7.7331    1.1200    0.0000 H       1  UNL1        0.0493
     21 H           4.5981   -2.3100    0.0000 H       1  UNL1        0.1492
     22 H           6.8671    1.6200    0.0000 H       1  UNL1        0.1492
     23 H           5.3810   -3.5000    0.0000 H       1  UNL1        0.0247
     24 H           6.0010   -4.1200    0.0000 H       1  UNL1        0.0247
     25 H           6.6210   -3.5000    0.0000 H       1  UNL1        0.0247
     26 H           7.1771   -2.5369    0.0000 H       1  UNL1        0.0247
     27 H           7.4040   -1.6900    0.0000 H       1  UNL1        0.0247
     28 H           6.5571   -1.4631    0.0000 H       1  UNL1        0.0247
     29 H           8.9091    0.4631    0.0000 H       1  UNL1        0.0247
     30 H           9.1360    1.3100    0.0000 H       1  UNL1        0.0247
     31 H           8.2891    1.5369    0.0000 H       1  UNL1        0.0247
     32 H           7.1131   -0.5000    0.0000 H       1  UNL1        0.0247
     33 H           7.7331   -1.1200    0.0000 H       1  UNL1        0.0247
     34 H           8.3531   -0.5000    0.0000 H       1  UNL1        0.0247
     35 H           2.8660    0.6900    0.0000 H       1  UNL1        0.1730
     36 H           3.9399    2.3100    0.0000 H       1  UNL1        0.1725
     37 H           2.0000    2.1900    0.0000 H       1  UNL1        0.1266
@<TRIPOS>BOND
     1     1    18    2
     2     2     9    1
     3     2    15    1
     4     2    21    1
     5     3    10    1
     6     3    16    1
     7     3    22    1
     8     4    15   ar
     9     4    16   ar
    10     5    16   ar
    11     5    17   ar
    12     6    15   ar
    13     6    17   ar
    14     7     8    1
    15     7    17    1
    16     7    35    1
    17     8    18   am
    18     8    36    1
    19     9    11    1
    20     9    12    1
    21     9    19    1
    22    10    13    1
    23    10    14    1
    24    10    20    1
    25    11    23    1
    26    11    24    1
    27    11    25    1
    28    12    26    1
    29    12    27    1
    30    12    28    1
    31    13    29    1
    32    13    30    1
    33    13    31    1
    34    14    32    1
    35    14    33    1
    36    14    34    1
    37    18    37    1
