@<TRIPOS>MOLECULE
IMPHY003265
 15 15 0 0 0
SMALL
GASTEIGER

@<TRIPOS>ATOM
      1 O           3.7320    1.6550    0.0000 O.3     1  UNL1       -0.5065
      2 O           2.0000   -1.3450    0.0000 O.3     1  UNL1       -0.5065
      3 O           5.4641   -1.3450    0.0000 O.3     1  UNL1       -0.5065
      4 C           3.7320    0.6550    0.0000 C.ar    1  UNL1        0.1238
      5 C           2.8660   -0.8450    0.0000 C.ar    1  UNL1        0.1238
      6 C           4.5981   -0.8450    0.0000 C.ar    1  UNL1        0.1238
      7 C           2.8660    0.1550    0.0000 C.ar    1  UNL1        0.0215
      8 C           4.5981    0.1550    0.0000 C.ar    1  UNL1        0.0215
      9 C           3.7320   -1.3450    0.0000 C.ar    1  UNL1        0.0215
     10 H           2.3291    0.4650    0.0000 H       1  UNL1        0.0691
     11 H           5.1350    0.4650    0.0000 H       1  UNL1        0.0691
     12 H           3.7320   -1.9650    0.0000 H       1  UNL1        0.0691
     13 H           4.2690    1.9650    0.0000 H       1  UNL1        0.2921
     14 H           2.0000   -1.9650    0.0000 H       1  UNL1        0.2921
     15 H           5.4641   -1.9650    0.0000 H       1  UNL1        0.2921
@<TRIPOS>BOND
     1     1     4    1
     2     1    13    1
     3     2     5    1
     4     2    14    1
     5     3     6    1
     6     3    15    1
     7     4     7   ar
     8     4     8   ar
     9     5     7   ar
    10     5     9   ar
    11     6     8   ar
    12     6     9   ar
    13     7    10    1
    14     8    11    1
    15     9    12    1
