@<TRIPOS>MOLECULE
IMPHY005777
 39 41 0 0 0
SMALL
GASTEIGER

@<TRIPOS>ATOM
      1 O           3.5836    0.3977    0.0000 O.3     1  UNL1       -0.4542
      2 O           4.5298    1.0930    0.0000 O.3     1  UNL1       -0.3799
      3 O           8.0321    0.0899    0.0000 O.3     1  UNL1       -0.3911
      4 O           2.0000   -0.4070    0.0000 O.2     1  UNL1       -0.2453
      5 C           6.2619    0.0930    0.0000 C.3     1  UNL1        0.0300
      6 C           5.3958    0.5930    0.0000 C.3     1  UNL1        0.1317
      7 C           4.5298    0.0930    0.0000 C.3     1  UNL1        0.1432
      8 C           6.2619   -0.9070    0.0000 C.3     1  UNL1       -0.0415
      9 C           4.5298   -0.9070    0.0000 C.3     1  UNL1        0.0306
     10 C           7.1719    0.5998    0.0000 C.3     1  UNL1        0.0639
     11 C           5.3958   -1.4070    0.0000 C.3     1  UNL1       -0.0418
     12 C           5.3798    1.6345    0.0000 C.2     1  UNL1       -0.0413
     13 C           7.1799    1.6414    0.0000 C.3     1  UNL1       -0.0225
     14 C           7.1279   -0.4070    0.0000 C.3     1  UNL1       -0.0541
     15 C           6.2778    2.1623    0.0000 C.3     1  UNL1       -0.0268
     16 C           3.5836   -1.2117    0.0000 C.2     1  UNL1        0.0362
     17 C           3.0000   -0.4070    0.0000 C.2     1  UNL1        0.3354
     18 C           4.5080    2.1245    0.0000 C.2     1  UNL1       -0.0966
     19 C           3.2729   -2.1623    0.0000 C.2     1  UNL1       -0.0883
     20 H           5.2660   -0.3320    0.0000 H       1  UNL1        0.0773
     21 H           6.4739   -1.4896    0.0000 H       1  UNL1        0.0273
     22 H           6.8725   -0.7993    0.0000 H       1  UNL1        0.0273
     23 H           4.4399   -1.7522    0.0000 H       1  UNL1        0.0388
     24 H           7.7118    0.9047    0.0000 H       1  UNL1        0.0600
     25 H           4.9973   -1.8820    0.0000 H       1  UNL1        0.0272
     26 H           5.7944   -1.8820    0.0000 H       1  UNL1        0.0272
     27 H           7.7899    1.5306    0.0000 H       1  UNL1        0.0293
     28 H           7.3935    2.2235    0.0000 H       1  UNL1        0.0293
     29 H           6.8179   -0.9439    0.0000 H       1  UNL1        0.0237
     30 H           7.6648   -0.7170    0.0000 H       1  UNL1        0.0237
     31 H           7.4379    0.1299    0.0000 H       1  UNL1        0.0237
     32 H           6.6751    2.6382    0.0000 H       1  UNL1        0.0312
     33 H           5.8769    2.6352    0.0000 H       1  UNL1        0.0312
     34 H           3.9098    1.0930    0.0000 H       1  UNL1        0.2108
     35 H           8.5726    0.3936    0.0000 H       1  UNL1        0.2098
     36 H           4.5009    2.7444    0.0000 H       1  UNL1        0.0535
     37 H           3.9747    1.8083    0.0000 H       1  UNL1        0.0535
     38 H           2.6663   -2.2901    0.0000 H       1  UNL1        0.0540
     39 H           3.6870   -2.6237    0.0000 H       1  UNL1        0.0540
@<TRIPOS>BOND
     1     1     7    1
     2     1    17    1
     3     6     2    1
     4     2    34    1
     5    10     3    1
     6     3    35    1
     7     4    17    2
     8     5     6    1
     9     5     8    1
    10     5    10    1
    11     5    14    1
    12     6     7    1
    13     6    12    1
    14     7     9    1
    15     7    20    1
    16     8    11    1
    17     8    21    1
    18     8    22    1
    19     9    11    1
    20     9    16    1
    21     9    23    1
    22    10    13    1
    23    10    24    1
    24    11    25    1
    25    11    26    1
    26    12    15    1
    27    12    18    2
    28    13    15    1
    29    13    27    1
    30    13    28    1
    31    14    29    1
    32    14    30    1
    33    14    31    1
    34    15    32    1
    35    15    33    1
    36    16    17    1
    37    16    19    2
    38    18    36    1
    39    18    37    1
    40    19    38    1
    41    19    39    1
