@<TRIPOS>MOLECULE
IMPHY006416
 29 28 0 0 0
SMALL
GASTEIGER

@<TRIPOS>ATOM
      1 O           2.5369   -0.5600    0.0000 O.3     1  UNL1       -0.3891
      2 C           3.4030   -0.0600    0.0000 C.3     1  UNL1        0.0608
      3 C           4.2690    0.4400    0.0000 C.3     1  UNL1       -0.0211
      4 C           5.1350   -0.0600    0.0000 C.3     1  UNL1       -0.0316
      5 C           2.9030    0.8060    0.0000 C.3     1  UNL1       -0.0363
      6 C           3.9030   -0.9260    0.0000 C.3     1  UNL1       -0.0363
      7 C           6.0010    0.4400    0.0000 C.2     1  UNL1       -0.0810
      8 C           6.8671   -0.0600    0.0000 C.2     1  UNL1       -0.0549
      9 C           6.8671   -1.0600    0.0000 C.3     1  UNL1       -0.0400
     10 C           7.7331    0.4400    0.0000 C.2     1  UNL1       -0.0662
     11 C           8.5991   -0.0600    0.0000 C.2     1  UNL1       -0.0985
     12 H           4.6675    0.9149    0.0000 H       1  UNL1        0.0296
     13 H           3.8705    0.9149    0.0000 H       1  UNL1        0.0296
     14 H           4.7365   -0.5349    0.0000 H       1  UNL1        0.0308
     15 H           5.5335   -0.5349    0.0000 H       1  UNL1        0.0308
     16 H           3.4399    1.1160    0.0000 H       1  UNL1        0.0257
     17 H           2.5930    1.3430    0.0000 H       1  UNL1        0.0257
     18 H           2.3660    0.4960    0.0000 H       1  UNL1        0.0257
     19 H           3.3660   -1.2360    0.0000 H       1  UNL1        0.0257
     20 H           4.2130   -1.4630    0.0000 H       1  UNL1        0.0257
     21 H           4.4399   -0.6160    0.0000 H       1  UNL1        0.0257
     22 H           6.0010    1.0600    0.0000 H       1  UNL1        0.0575
     23 H           2.0000   -0.2500    0.0000 H       1  UNL1        0.2101
     24 H           6.2471   -1.0600    0.0000 H       1  UNL1        0.0277
     25 H           6.8671   -1.6800    0.0000 H       1  UNL1        0.0277
     26 H           7.4871   -1.0600    0.0000 H       1  UNL1        0.0277
     27 H           7.7331    1.0600    0.0000 H       1  UNL1        0.0614
     28 H           8.5991   -0.6800    0.0000 H       1  UNL1        0.0535
     29 H           9.1360    0.2500    0.0000 H       1  UNL1        0.0535
@<TRIPOS>BOND
     1     1     2    1
     2     1    23    1
     3     2     3    1
     4     2     5    1
     5     2     6    1
     6     3     4    1
     7     3    12    1
     8     3    13    1
     9     4     7    1
    10     4    14    1
    11     4    15    1
    12     5    16    1
    13     5    17    1
    14     5    18    1
    15     6    19    1
    16     6    20    1
    17     6    21    1
    18     7     8    2
    19     7    22    1
    20     8     9    1
    21     8    10    1
    22     9    24    1
    23     9    25    1
    24     9    26    1
    25    10    11    2
    26    10    27    1
    27    11    28    1
    28    11    29    1
