@<TRIPOS>MOLECULE
IMPHY000240
 95 101 0 0 0
SMALL
GASTEIGER

@<TRIPOS>ATOM
      1 O           8.3892   -1.0736    0.0000 O.3     1  UNL1       -0.3712
      2 O           6.1087   -3.1269    0.0000 O.3     1  UNL1       -0.3712
      3 O          12.0380   -3.8728    0.0000 O.3     1  UNL1       -0.4796
      4 O          10.2258   -5.0681    0.0000 O.3     1  UNL1       -0.4914
      5 O           2.5399   -2.1444    0.0000 O.3     1  UNL1       -0.4914
      6 O          11.6808   -0.5686    0.0000 O.3     1  UNL1       -0.3943
      7 O           2.5364   -0.1444    0.0000 O.3     1  UNL1       -0.5031
      8 O           5.9988    0.8616    0.0000 O.3     1  UNL1       -0.3940
      9 O           2.5347    0.8556    0.0000 O.2     1  UNL1       -0.2913
     10 O          15.6216   -4.8002    0.0000 O.3     1  UNL1       -0.4914
     11 O          16.6216   -3.0681    0.0000 O.3     1  UNL1       -0.5033
     12 O           5.1267    4.3601    0.0000 O.3     1  UNL1       -0.4914
     13 O           3.3929    5.3571    0.0000 O.3     1  UNL1       -0.5033
     14 C           7.5802   -2.4748    0.0000 C.3     1  UNL1        0.0205
     15 C           6.9110   -1.7317    0.0000 C.3     1  UNL1        0.0205
     16 C           8.4937   -2.0681    0.0000 C.3     1  UNL1        0.0891
     17 C           6.0040   -2.1384    0.0000 C.3     1  UNL1        0.0891
     18 C           7.4110   -0.8657    0.0000 C.3     1  UNL1        0.0544
     19 C           7.0809   -3.3344    0.0000 C.3     1  UNL1        0.0544
     20 C           9.3597   -2.5681    0.0000 C.ar    1  UNL1       -0.0146
     21 C           5.1371   -1.6399    0.0000 C.ar    1  UNL1       -0.0146
     22 C          10.2258   -2.0681    0.0000 C.ar    1  UNL1       -0.0487
     23 C           9.3597   -3.5681    0.0000 C.ar    1  UNL1       -0.0106
     24 C          11.0918   -2.5681    0.0000 C.ar    1  UNL1        0.0074
     25 C          12.0380   -2.2634    0.0000 C.3     1  UNL1        0.0520
     26 C           5.1353   -0.6399    0.0000 C.ar    1  UNL1       -0.0485
     27 C           4.2719   -2.1414    0.0000 C.ar    1  UNL1       -0.0106
     28 C          11.0918   -3.5681    0.0000 C.ar    1  UNL1        0.1664
     29 C          12.6216   -3.0681    0.0000 C.3     1  UNL1        0.1344
     30 C          10.2258   -4.0681    0.0000 C.ar    1  UNL1        0.1622
     31 C           4.2684   -0.1414    0.0000 C.ar    1  UNL1        0.0108
     32 C           3.4050   -1.6429    0.0000 C.ar    1  UNL1        0.1619
     33 C          12.3487   -1.3128    0.0000 C.3     1  UNL1        0.0548
     34 C           3.4033   -0.6429    0.0000 C.ar    1  UNL1        0.1625
     35 C           4.2667    0.8586    0.0000 C.3     1  UNL1        0.0737
     36 C          13.6216   -3.0681    0.0000 C.ar    1  UNL1       -0.0030
     37 C           5.1319    1.3601    0.0000 C.3     1  UNL1        0.0582
     38 C           3.3998    1.3571    0.0000 C.2     1  UNL1        0.1729
     39 C          14.1216   -3.9341    0.0000 C.ar    1  UNL1       -0.0096
     40 C          14.1216   -2.2021    0.0000 C.ar    1  UNL1       -0.0514
     41 C           9.3597   -5.5681    0.0000 C.3     1  UNL1        0.0790
     42 C          15.1216   -3.9341    0.0000 C.ar    1  UNL1        0.1616
     43 C          15.1216   -2.2021    0.0000 C.ar    1  UNL1       -0.0161
     44 C           2.5416   -3.1444    0.0000 C.3     1  UNL1        0.0790
     45 C           3.3981    2.3571    0.0000 C.ar    1  UNL1        0.0218
     46 C          15.6216   -3.0681    0.0000 C.ar    1  UNL1        0.1585
     47 C           4.2633    2.8586    0.0000 C.ar    1  UNL1       -0.0058
     48 C           2.5312    2.8556    0.0000 C.ar    1  UNL1       -0.0476
     49 C           4.2615    3.8586    0.0000 C.ar    1  UNL1        0.1619
     50 C           2.5295    3.8556    0.0000 C.ar    1  UNL1       -0.0159
     51 C          15.1216   -5.6662    0.0000 C.3     1  UNL1        0.0790
     52 C           3.3946    4.3571    0.0000 C.ar    1  UNL1        0.1585
     53 C           5.1250    5.3601    0.0000 C.3     1  UNL1        0.0790
     54 H           8.1481   -3.1072    0.0000 H       1  UNL1        0.0356
     55 H           6.3415   -1.1008    0.0000 H       1  UNL1        0.0356
     56 H           9.0137   -1.7304    0.0000 H       1  UNL1        0.0650
     57 H           5.4844   -2.4767    0.0000 H       1  UNL1        0.0650
     58 H           7.6026   -0.2760    0.0000 H       1  UNL1        0.0564
     59 H           6.8446   -0.6135    0.0000 H       1  UNL1        0.0564
     60 H           6.8885   -3.9238    0.0000 H       1  UNL1        0.0564
     61 H           7.6468   -3.5878    0.0000 H       1  UNL1        0.0564
     62 H          10.2258   -1.4481    0.0000 H       1  UNL1        0.0625
     63 H           8.8228   -3.8781    0.0000 H       1  UNL1        0.0659
     64 H          11.6006   -1.8240    0.0000 H       1  UNL1        0.0412
     65 H           5.6717   -0.3290    0.0000 H       1  UNL1        0.0625
     66 H           4.2730   -2.7614    0.0000 H       1  UNL1        0.0659
     67 H          12.9033   -3.6204    0.0000 H       1  UNL1        0.0791
     68 H          12.8956   -1.6049    0.0000 H       1  UNL1        0.0564
     69 H          12.7312   -0.8249    0.0000 H       1  UNL1        0.0564
     70 H           4.2656    1.4786    0.0000 H       1  UNL1        0.0453
     71 H           5.5296    1.8358    0.0000 H       1  UNL1        0.0567
     72 H           4.7325    1.8344    0.0000 H       1  UNL1        0.0567
     73 H          13.8116   -4.4711    0.0000 H       1  UNL1        0.0659
     74 H          13.8116   -1.6651    0.0000 H       1  UNL1        0.0623
     75 H          11.8734    0.0208    0.0000 H       1  UNL1        0.2094
     76 H           2.0000   -0.4553    0.0000 H       1  UNL1        0.2923
     77 H           9.0497   -5.0312    0.0000 H       1  UNL1        0.0660
     78 H           8.8228   -5.8781    0.0000 H       1  UNL1        0.0660
     79 H           9.6697   -6.1050    0.0000 H       1  UNL1        0.0660
     80 H          15.4316   -1.6651    0.0000 H       1  UNL1        0.0655
     81 H           1.9216   -3.1454    0.0000 H       1  UNL1        0.0660
     82 H           2.5427   -3.7644    0.0000 H       1  UNL1        0.0660
     83 H           3.1616   -3.1433    0.0000 H       1  UNL1        0.0660
     84 H           6.5352    1.1725    0.0000 H       1  UNL1        0.2094
     85 H           4.8007    2.5495    0.0000 H       1  UNL1        0.0662
     86 H           1.9948    2.5447    0.0000 H       1  UNL1        0.0626
     87 H          16.9316   -2.5312    0.0000 H       1  UNL1        0.2923
     88 H           1.9920    4.1647    0.0000 H       1  UNL1        0.0655
     89 H          14.5847   -5.3562    0.0000 H       1  UNL1        0.0660
     90 H          14.8116   -6.2031    0.0000 H       1  UNL1        0.0660
     91 H          15.6586   -5.9762    0.0000 H       1  UNL1        0.0660
     92 H           2.8554    5.6662    0.0000 H       1  UNL1        0.2923
     93 H           5.7450    5.3612    0.0000 H       1  UNL1        0.0660
     94 H           5.1239    5.9801    0.0000 H       1  UNL1        0.0660
     95 H           4.5050    5.3590    0.0000 H       1  UNL1        0.0660
@<TRIPOS>BOND
     1     1    16    1
     2     1    18    1
     3     2    17    1
     4     2    19    1
     5     3    28    1
     6     3    29    1
     7     4    30    1
     8     4    41    1
     9     5    32    1
    10     5    44    1
    11     6    33    1
    12     6    75    1
    13     7    34    1
    14     7    76    1
    15     8    37    1
    16     8    84    1
    17     9    38    2
    18    10    42    1
    19    10    51    1
    20    11    46    1
    21    11    87    1
    22    12    49    1
    23    12    53    1
    24    13    52    1
    25    13    92    1
    26    14    15    1
    27    14    16    1
    28    14    19    1
    29    14    54    1
    30    15    17    1
    31    15    18    1
    32    15    55    1
    33    16    20    1
    34    16    56    1
    35    17    21    1
    36    17    57    1
    37    18    58    1
    38    18    59    1
    39    19    60    1
    40    19    61    1
    41    20    22   ar
    42    20    23   ar
    43    21    26   ar
    44    21    27   ar
    45    22    24   ar
    46    22    62    1
    47    23    30   ar
    48    23    63    1
    49    24    25    1
    50    24    28   ar
    51    25    29    1
    52    25    33    1
    53    25    64    1
    54    26    31   ar
    55    26    65    1
    56    27    32   ar
    57    27    66    1
    58    28    30   ar
    59    29    36    1
    60    29    67    1
    61    31    34   ar
    62    31    35    1
    63    32    34   ar
    64    33    68    1
    65    33    69    1
    66    35    37    1
    67    35    38    1
    68    35    70    1
    69    36    39   ar
    70    36    40   ar
    71    37    71    1
    72    37    72    1
    73    38    45    1
    74    39    42   ar
    75    39    73    1
    76    40    43   ar
    77    40    74    1
    78    41    77    1
    79    41    78    1
    80    41    79    1
    81    42    46   ar
    82    43    46   ar
    83    43    80    1
    84    44    81    1
    85    44    82    1
    86    44    83    1
    87    45    47   ar
    88    45    48   ar
    89    47    49   ar
    90    47    85    1
    91    48    50   ar
    92    48    86    1
    93    49    52   ar
    94    50    52   ar
    95    50    88    1
    96    51    89    1
    97    51    90    1
    98    51    91    1
    99    53    93    1
   100    53    94    1
   101    53    95    1
