@<TRIPOS>MOLECULE
IMPHY016806
 19 19 0 0 0
SMALL
GASTEIGER

@<TRIPOS>ATOM
      1 O           3.7320    1.9400    0.0000 O.3     1  UNL1       -0.3904
      2 C           2.8660    0.4400    0.0000 C.ar    1  UNL1       -0.0222
      3 C           2.8660   -1.5600    0.0000 C.ar    1  UNL1       -0.0504
      4 C           2.0000   -0.0600    0.0000 C.ar    1  UNL1       -0.0561
      5 C           3.7320   -0.0600    0.0000 C.ar    1  UNL1       -0.0561
      6 C           2.0000   -1.0600    0.0000 C.ar    1  UNL1       -0.0585
      7 C           3.7320   -1.0600    0.0000 C.ar    1  UNL1       -0.0585
      8 C           2.8660    1.4400    0.0000 C.3     1  UNL1        0.0692
      9 C           2.8660   -2.5600    0.0000 C.3     1  UNL1       -0.0397
     10 H           1.4631    0.2500    0.0000 H       1  UNL1        0.0621
     11 H           4.2690    0.2500    0.0000 H       1  UNL1        0.0621
     12 H           1.4631   -1.3700    0.0000 H       1  UNL1        0.0620
     13 H           4.2690   -1.3700    0.0000 H       1  UNL1        0.0620
     14 H           2.6540    2.0226    0.0000 H       1  UNL1        0.0607
     15 H           2.2554    1.3323    0.0000 H       1  UNL1        0.0607
     16 H           2.2460   -2.5600    0.0000 H       1  UNL1        0.0278
     17 H           2.8660   -3.1800    0.0000 H       1  UNL1        0.0278
     18 H           3.4860   -2.5600    0.0000 H       1  UNL1        0.0278
     19 H           3.7320    2.5600    0.0000 H       1  UNL1        0.2098
@<TRIPOS>BOND
     1     1     8    1
     2     1    19    1
     3     2     4   ar
     4     2     5   ar
     5     2     8    1
     6     3     6   ar
     7     3     7   ar
     8     3     9    1
     9     4     6   ar
    10     4    10    1
    11     5     7   ar
    12     5    11    1
    13     6    12    1
    14     7    13    1
    15     8    14    1
    16     8    15    1
    17     9    16    1
    18     9    17    1
    19     9    18    1
