@<TRIPOS>MOLECULE
IMPHY000656
 49 52 0 0 0
SMALL
GASTEIGER

@<TRIPOS>ATOM
      1 O           7.2825   -3.6457    0.0000 O.3     1  UNL1       -0.4489
      2 O           8.7929   -2.9183    0.0000 O.3     1  UNL1       -0.4525
      3 O           5.3788   -2.4500    0.0000 O.3     1  UNL1       -0.4907
      4 O           2.2948   -0.7689    0.0000 O.3     1  UNL1       -0.4913
      5 O           2.7031    1.0315    0.0000 O.2     1  UNL1       -0.2840
      6 O           7.0052    2.8540    0.0000 O.2     1  UNL1       -0.2761
      7 N           5.4447    2.1025    0.0000 N.am    1  UNL1       -0.3087
      8 C           5.8786    1.2015    0.0000 C.3     1  UNL1        0.0493
      9 C           6.8786    1.2015    0.0000 C.3     1  UNL1       -0.0263
     10 C           7.5021    0.4197    0.0000 C.3     1  UNL1       -0.0249
     11 C           7.2796   -0.5553    0.0000 C.ar    1  UNL1       -0.0324
     12 C           5.2551    0.4197    0.0000 C.ar    1  UNL1       -0.0157
     13 C           6.3786   -0.9892    0.0000 C.ar    1  UNL1        0.0312
     14 C           5.4776   -0.5553    0.0000 C.ar    1  UNL1       -0.0088
     15 C           6.2847   -2.0265    0.0000 C.ar    1  UNL1        0.1732
     16 C           8.1491   -1.1287    0.0000 C.ar    1  UNL1       -0.0121
     17 C           7.1408   -2.6199    0.0000 C.ar    1  UNL1        0.2081
     18 C           8.0793   -2.1680    0.0000 C.ar    1  UNL1        0.1702
     19 C           4.3686    0.8393    0.0000 C.ar    1  UNL1       -0.0057
     20 C           4.8610   -1.3180    0.0000 C.ar    1  UNL1       -0.0500
     21 C           3.4866    0.4101    0.0000 C.ar    1  UNL1        0.2206
     22 C           3.8802   -1.3140    0.0000 C.ar    1  UNL1       -0.0155
     23 C           6.0080    2.9287    0.0000 C.2     1  UNL1        0.2104
     24 C           8.3015   -3.8297    0.0000 C.3     1  UNL1        0.2334
     25 C           3.2697   -0.5464    0.0000 C.ar    1  UNL1        0.1665
     26 C           5.5741    3.8297    0.0000 C.3     1  UNL1        0.0122
     27 C           5.2926   -3.4462    0.0000 C.3     1  UNL1        0.0790
     28 C           2.0000   -1.7244    0.0000 C.3     1  UNL1        0.0790
     29 H           6.2084    1.7265    0.0000 H       1  UNL1        0.0548
     30 H           7.4372    1.4705    0.0000 H       1  UNL1        0.0289
     31 H           6.7406    1.8060    0.0000 H       1  UNL1        0.0289
     32 H           8.0607    0.1507    0.0000 H       1  UNL1        0.0314
     33 H           7.8886    0.9044    0.0000 H       1  UNL1        0.0314
     34 H           8.7046   -0.8532    0.0000 H       1  UNL1        0.0658
     35 H           4.8264    2.1488    0.0000 H       1  UNL1        0.1493
     36 H           4.3652    1.4592    0.0000 H       1  UNL1        0.0660
     37 H           5.1270   -1.8780    0.0000 H       1  UNL1        0.0625
     38 H           3.6097   -1.8719    0.0000 H       1  UNL1        0.0655
     39 H           8.1278   -4.4248    0.0000 H       1  UNL1        0.1166
     40 H           8.8751   -4.0649    0.0000 H       1  UNL1        0.1166
     41 H           6.1327    4.0987    0.0000 H       1  UNL1        0.0322
     42 H           5.3051    4.3883    0.0000 H       1  UNL1        0.0322
     43 H           5.0155    3.5607    0.0000 H       1  UNL1        0.0322
     44 H           4.6749   -3.3928    0.0000 H       1  UNL1        0.0660
     45 H           5.2391   -4.0639    0.0000 H       1  UNL1        0.0660
     46 H           5.9102   -3.4997    0.0000 H       1  UNL1        0.0660
     47 H           1.4075   -1.5417    0.0000 H       1  UNL1        0.0660
     48 H           1.8172   -2.3169    0.0000 H       1  UNL1        0.0660
     49 H           2.5925   -1.9072    0.0000 H       1  UNL1        0.0660
@<TRIPOS>BOND
     1     1    17    1
     2     1    24    1
     3     2    18    1
     4     2    24    1
     5     3    15    1
     6     3    27    1
     7     4    25    1
     8     4    28    1
     9     5    21    2
    10     6    23    2
    11     7     8    1
    12     7    23   am
    13     7    35    1
    14     8     9    1
    15     8    12    1
    16     8    29    1
    17     9    10    1
    18     9    30    1
    19     9    31    1
    20    10    11    1
    21    10    32    1
    22    10    33    1
    23    11    13   ar
    24    11    16   ar
    25    12    14   ar
    26    12    19   ar
    27    13    14    1
    28    13    15   ar
    29    14    20   ar
    30    15    17   ar
    31    16    18   ar
    32    16    34    1
    33    17    18   ar
    34    19    21   ar
    35    19    36    1
    36    20    22   ar
    37    20    37    1
    38    21    25   ar
    39    22    25   ar
    40    22    38    1
    41    23    26    1
    42    24    39    1
    43    24    40    1
    44    26    41    1
    45    26    42    1
    46    26    43    1
    47    27    44    1
    48    27    45    1
    49    27    46    1
    50    28    47    1
    51    28    48    1
    52    28    49    1
