@<TRIPOS>MOLECULE
IMPHY010871
 48 51 0 0 0
SMALL
GASTEIGER

@<TRIPOS>ATOM
      1 O           6.2836   -1.5657    0.0000 O.2     1  UNL1       -0.4213
      2 O           3.5863    0.6524    0.0000 O.3     1  UNL1       -0.4943
      3 O           2.9848   -2.7592    0.0000 O.3     1  UNL1       -0.4943
      4 O           9.0860    0.2809    0.0000 O.2     1  UNL1       -0.4911
      5 O           7.9498   -0.5029    0.0000 O.2     1  UNL1       -0.2833
      6 O           7.3043    3.3397    0.0000 O.2     1  UNL1       -0.2871
      7 O           7.6329   -2.7116    0.0000 O.2     1  UNL1       -0.2452
      8 C           5.5559    0.3051    0.0000 C.ar    1  UNL1        0.0010
      9 C           4.9132   -0.4610    0.0000 C.ar    1  UNL1        0.0676
     10 C           6.4219    0.8051    0.0000 C.ar    1  UNL1        0.0441
     11 C           6.4219    1.8051    0.0000 C.ar    1  UNL1        0.0335
     12 C           5.2551   -1.4007    0.0000 C.ar    1  UNL1        0.1537
     13 C           4.6899    0.8051    0.0000 C.ar    1  UNL1       -0.0502
     14 C           4.6899    1.8051    0.0000 C.ar    1  UNL1       -0.0492
     15 C           3.9283   -0.2874    0.0000 C.ar    1  UNL1        0.1348
     16 C           4.6124   -2.1667    0.0000 C.ar    1  UNL1        0.0600
     17 C           5.5559    2.3051    0.0000 C.ar    1  UNL1       -0.0473
     18 C           7.3159    0.2704    0.0000 C.2     1  UNL1        0.2287
     19 C           3.6276   -1.9931    0.0000 C.ar    1  UNL1        0.1342
     20 C           3.2856   -1.0534    0.0000 C.ar    1  UNL1        0.0232
     21 C           7.3159    2.3397    0.0000 C.2     1  UNL1        0.1904
     22 C           8.2219    0.7843    0.0000 C.2     1  UNL1        0.1708
     23 C           8.2219    1.8259    0.0000 C.2     1  UNL1        0.0312
     24 C           3.8239    2.3051    0.0000 C.3     1  UNL1       -0.0397
     25 C           4.9535   -3.1509    0.0000 C.ar    1  UNL1       -0.0408
     26 C           5.9779   -3.3397    0.0000 C.ar    1  UNL1        0.0237
     27 C           6.6474   -2.5417    0.0000 C.ar    1  UNL1        0.3372
     28 C           2.6015    0.8261    0.0000 C.3     1  UNL1        0.0788
     29 C           2.0000   -2.5855    0.0000 C.3     1  UNL1        0.0788
     30 C           9.9540    0.7776    0.0000 C.3     1  UNL1        0.0790
     31 H           4.1530    0.4951    0.0000 H       1  UNL1        0.0626
     32 H           5.5559    2.9251    0.0000 H       1  UNL1        0.0627
     33 H           2.6750   -0.9458    0.0000 H       1  UNL1        0.0691
     34 H           8.7577    2.1380    0.0000 H       1  UNL1        0.0694
     35 H           4.1339    2.8420    0.0000 H       1  UNL1        0.0278
     36 H           3.2869    2.6151    0.0000 H       1  UNL1        0.0278
     37 H           3.5139    1.7681    0.0000 H       1  UNL1        0.0278
     38 H           4.5495   -3.6212    0.0000 H       1  UNL1        0.0628
     39 H           6.1877   -3.9231    0.0000 H       1  UNL1        0.0689
     40 H           2.7092    1.4366    0.0000 H       1  UNL1        0.0660
     41 H           1.9909    0.9337    0.0000 H       1  UNL1        0.0660
     42 H           2.4938    0.2155    0.0000 H       1  UNL1        0.0660
     43 H           2.1077   -1.9749    0.0000 H       1  UNL1        0.0660
     44 H           1.3894   -2.4778    0.0000 H       1  UNL1        0.0660
     45 H           1.8923   -3.1961    0.0000 H       1  UNL1        0.0660
     46 H          10.2619    0.2395    0.0000 H       1  UNL1        0.0660
     47 H          10.4921    1.0855    0.0000 H       1  UNL1        0.0660
     48 H           9.6460    1.3157    0.0000 H       1  UNL1        0.0660
@<TRIPOS>BOND
     1     1    12   ar
     2     1    27   ar
     3     2    15    1
     4     2    28    1
     5     3    19    1
     6     3    29    1
     7     4    22    1
     8     4    30    1
     9     5    18    2
    10     6    21    2
    11     7    27    2
    12     8     9    1
    13     8    10   ar
    14     8    13   ar
    15     9    12   ar
    16     9    15   ar
    17    10    11   ar
    18    10    18    1
    19    11    17   ar
    20    11    21    1
    21    12    16   ar
    22    13    14   ar
    23    13    31    1
    24    14    17   ar
    25    14    24    1
    26    15    20   ar
    27    16    19   ar
    28    16    25   ar
    29    17    32    1
    30    18    22    1
    31    19    20   ar
    32    20    33    1
    33    21    23    1
    34    22    23    2
    35    23    34    1
    36    24    35    1
    37    24    36    1
    38    24    37    1
    39    25    26   ar
    40    25    38    1
    41    26    27   ar
    42    26    39    1
    43    28    40    1
    44    28    41    1
    45    28    42    1
    46    29    43    1
    47    29    44    1
    48    29    45    1
    49    30    46    1
    50    30    47    1
    51    30    48    1
