@<TRIPOS>MOLECULE
IMPHY015196
 19 20 0 0 0
SMALL
GASTEIGER

@<TRIPOS>ATOM
      1 N           3.7320   -0.8776    0.0000 N.ar    1  UNL1       -0.3228
      2 C           3.7320    0.1224    0.0000 C.ar    1  UNL1        0.0489
      3 C           4.6783    0.4271    0.0000 C.ar    1  UNL1       -0.0253
      4 C           4.6783   -1.1824    0.0000 C.ar    1  UNL1        0.0101
      5 C           5.2619   -0.3776    0.0000 C.ar    1  UNL1       -0.0403
      6 C           2.8660    0.6224    0.0000 C.ar    1  UNL1       -0.0376
      7 C           2.8660   -1.3776    0.0000 C.ar    1  UNL1        0.0098
      8 C           4.9889    1.3776    0.0000 C.3     1  UNL1       -0.0377
      9 C           2.0000    0.1224    0.0000 C.ar    1  UNL1       -0.0584
     10 C           2.0000   -0.8776    0.0000 C.ar    1  UNL1       -0.0452
     11 H           4.8709   -1.7717    0.0000 H       1  UNL1        0.0813
     12 H           5.8819   -0.3776    0.0000 H       1  UNL1        0.0635
     13 H           2.8660    1.2424    0.0000 H       1  UNL1        0.0638
     14 H           2.8660   -1.9976    0.0000 H       1  UNL1        0.0813
     15 H           5.5783    1.1850    0.0000 H       1  UNL1        0.0278
     16 H           5.1815    1.9670    0.0000 H       1  UNL1        0.0278
     17 H           4.3996    1.5702    0.0000 H       1  UNL1        0.0278
     18 H           1.4631    0.4324    0.0000 H       1  UNL1        0.0619
     19 H           1.4631   -1.1876    0.0000 H       1  UNL1        0.0632
@<TRIPOS>BOND
     1     1     2   ar
     2     1     4   ar
     3     1     7   ar
     4     2     3   ar
     5     2     6   ar
     6     3     5   ar
     7     3     8    1
     8     4     5   ar
     9     4    11    1
    10     5    12    1
    11     6     9   ar
    12     6    13    1
    13     7    10   ar
    14     7    14    1
    15     8    15    1
    16     8    16    1
    17     8    17    1
    18     9    10   ar
    19     9    18    1
    20    10    19    1
