@<TRIPOS>MOLECULE
IMPHY009727
 29 30 0 0 0
SMALL
GASTEIGER

@<TRIPOS>ATOM
      1 O           2.1916   -1.6892    0.0000 O.3     1  UNL1       -0.3947
      2 C           4.4298    0.7788    0.0000 C.3     1  UNL1       -0.0235
      3 C           4.4298   -0.2212    0.0000 C.3     1  UNL1       -0.0297
      4 C           5.2964    0.2788    0.0000 C.3     1  UNL1       -0.0432
      5 C           3.4788   -0.5302    0.0000 C.3     1  UNL1       -0.0144
      6 C           3.4788    1.0878    0.0000 C.3     1  UNL1       -0.0465
      7 C           4.4298    1.7788    0.0000 C.3     1  UNL1       -0.0408
      8 C           2.8910    0.2788    0.0000 C.3     1  UNL1       -0.0473
      9 C           3.1697   -1.4812    0.0000 C.3     1  UNL1        0.0473
     10 C           5.2958    2.2788    0.0000 C.3     1  UNL1       -0.0622
     11 C           3.5638    2.2788    0.0000 C.3     1  UNL1       -0.0622
     12 H           4.7754   -0.9977    0.0000 H       1  UNL1        0.0310
     13 H           5.6948   -0.1962    0.0000 H       1  UNL1        0.0274
     14 H           5.6948    0.7538    0.0000 H       1  UNL1        0.0274
     15 H           3.9172   -0.9686    0.0000 H       1  UNL1        0.0326
     16 H           3.7309    1.6542    0.0000 H       1  UNL1        0.0271
     17 H           2.9418    1.3978    0.0000 H       1  UNL1        0.0271
     18 H           4.4298    2.3988    0.0000 H       1  UNL1        0.0301
     19 H           2.4302    0.6937    0.0000 H       1  UNL1        0.0269
     20 H           2.4302   -0.1360    0.0000 H       1  UNL1        0.0269
     21 H           3.1914   -2.1009    0.0000 H       1  UNL1        0.0560
     22 H           3.7837   -1.5675    0.0000 H       1  UNL1        0.0560
     23 H           5.6058    1.7419    0.0000 H       1  UNL1        0.0233
     24 H           5.8328    2.5888    0.0000 H       1  UNL1        0.0233
     25 H           4.9858    2.8158    0.0000 H       1  UNL1        0.0233
     26 H           3.8738    2.8158    0.0000 H       1  UNL1        0.0233
     27 H           3.0268    2.5888    0.0000 H       1  UNL1        0.0233
     28 H           3.2538    1.7419    0.0000 H       1  UNL1        0.0233
     29 H           2.0000   -2.2788    0.0000 H       1  UNL1        0.2094
@<TRIPOS>BOND
     1     1     9    1
     2     1    29    1
     3     2     3    1
     4     2     4    1
     5     2     6    1
     6     2     7    1
     7     3     4    1
     8     3     5    1
     9     3    12    1
    10     4    13    1
    11     4    14    1
    12     5     8    1
    13     5     9    1
    14     5    15    1
    15     6     8    1
    16     6    16    1
    17     6    17    1
    18     7    10    1
    19     7    11    1
    20     7    18    1
    21     8    19    1
    22     8    20    1
    23     9    21    1
    24     9    22    1
    25    10    23    1
    26    10    24    1
    27    10    25    1
    28    11    26    1
    29    11    27    1
    30    11    28    1
