@<TRIPOS>MOLECULE
IMPHY008366
 53 57 0 0 0
SMALL
GASTEIGER

@<TRIPOS>ATOM
      1 O           5.4966    3.7540    0.0000 O.3     1  UNL1       -0.4811
      2 O           3.7653    0.5999    0.0000 O.2     1  UNL1       -0.4234
      3 O           3.0283   -1.0672    0.0000 O.2     1  UNL1       -0.4239
      4 O           7.2675    0.5968    0.0000 O.3     1  UNL1       -0.5052
      5 O           6.3634   -0.9001    0.0000 O.2     1  UNL1       -0.2861
      6 O           3.1872   -4.6684    0.0000 O.3     1  UNL1       -0.5066
      7 C           6.4320    4.3038    0.0000 C.3     1  UNL1        0.1235
      8 C           5.5133    2.6692    0.0000 C.ar    1  UNL1        0.1393
      9 C           4.6152    2.1414    0.0000 C.ar    1  UNL1        0.0419
     10 C           6.4154    2.1484    0.0000 C.ar    1  UNL1        0.0591
     11 C           4.6313    1.0999    0.0000 C.ar    1  UNL1        0.1531
     12 C           5.4973    0.5999    0.0000 C.ar    1  UNL1        0.1072
     13 C           6.4073    1.1068    0.0000 C.ar    1  UNL1        0.1418
     14 C           7.3716    3.7613    0.0000 C.2     1  UNL1       -0.0408
     15 C           7.3632    2.6763    0.0000 C.2     1  UNL1       -0.0478
     16 C           3.7435    2.6314    0.0000 C.3     1  UNL1       -0.0022
     17 C           4.6313   -0.9001    0.0000 C.ar    1  UNL1        0.1135
     18 C           5.4973   -0.4001    0.0000 C.ar    1  UNL1        0.2076
     19 C           6.9286    5.1717    0.0000 C.3     1  UNL1       -0.0215
     20 C           5.9286    5.1679    0.0000 C.3     1  UNL1       -0.0215
     21 C           3.7653   -0.4001    0.0000 C.ar    1  UNL1        0.3042
     22 C           4.4221   -1.8719    0.0000 C.ar    1  UNL1        0.0352
     23 C           3.4334   -1.9750    0.0000 C.ar    1  UNL1        0.1433
     24 C           3.7319    3.6313    0.0000 C.2     1  UNL1       -0.0807
     25 C           5.0429   -2.7006    0.0000 C.ar    1  UNL1       -0.0467
     26 C           2.9969   -2.9139    0.0000 C.ar    1  UNL1        0.0229
     27 C           2.8602    4.1213    0.0000 C.2     1  UNL1       -0.0793
     28 C           4.6282   -3.6495    0.0000 C.ar    1  UNL1       -0.0194
     29 C           3.5983   -3.7568    0.0000 C.ar    1  UNL1        0.1204
     30 C           2.8486    5.1212    0.0000 C.3     1  UNL1       -0.0440
     31 C           2.0000    3.6113    0.0000 C.3     1  UNL1       -0.0440
     32 H           7.9097    4.0692    0.0000 H       1  UNL1        0.0611
     33 H           7.8966    2.3601    0.0000 H       1  UNL1        0.0624
     34 H           3.1317    2.7320    0.0000 H       1  UNL1        0.0358
     35 H           3.5382    2.0464    0.0000 H       1  UNL1        0.0358
     36 H           6.4644    5.4799    0.0000 H       1  UNL1        0.0271
     37 H           7.4668    4.8638    0.0000 H       1  UNL1        0.0271
     38 H           7.2366    5.7098    0.0000 H       1  UNL1        0.0271
     39 H           6.3905    5.4796    0.0000 H       1  UNL1        0.0271
     40 H           5.6166    5.7036    0.0000 H       1  UNL1        0.0271
     41 H           5.3929    4.8558    0.0000 H       1  UNL1        0.0271
     42 H           4.2652    3.9475    0.0000 H       1  UNL1        0.0575
     43 H           5.6587   -2.6292    0.0000 H       1  UNL1        0.0626
     44 H           7.8080    0.9006    0.0000 H       1  UNL1        0.2922
     45 H           2.3795   -2.9710    0.0000 H       1  UNL1        0.0691
     46 H           4.9941   -4.1500    0.0000 H       1  UNL1        0.0654
     47 H           3.4686    5.1284    0.0000 H       1  UNL1        0.0274
     48 H           1.6838    4.1446    0.0000 H       1  UNL1        0.0274
     49 H           1.4667    3.2951    0.0000 H       1  UNL1        0.0274
     50 H           2.3162    3.0780    0.0000 H       1  UNL1        0.0274
     51 H           2.8414    5.7412    0.0000 H       1  UNL1        0.0274
     52 H           2.2287    5.1140    0.0000 H       1  UNL1        0.0274
     53 H           3.5493   -5.1717    0.0000 H       1  UNL1        0.2921
@<TRIPOS>BOND
     1     1     7    1
     2     1     8    1
     3     2    11   ar
     4     2    21   ar
     5     3    21   ar
     6     3    23   ar
     7     4    13    1
     8     4    44    1
     9     5    18    2
    10     6    29    1
    11     6    53    1
    12     7    14    1
    13     7    19    1
    14     7    20    1
    15     8     9   ar
    16     8    10   ar
    17     9    11   ar
    18     9    16    1
    19    10    13   ar
    20    10    15    1
    21    11    12   ar
    22    12    13   ar
    23    12    18   ar
    24    14    15    2
    25    14    32    1
    26    15    33    1
    27    16    24    1
    28    16    34    1
    29    16    35    1
    30    17    18   ar
    31    17    21   ar
    32    17    22   ar
    33    19    37    1
    34    19    38    1
    35    19    39    1
    36    20    36    1
    37    20    40    1
    38    20    41    1
    39    22    23   ar
    40    22    25   ar
    41    23    26   ar
    42    24    27    2
    43    24    42    1
    44    25    28   ar
    45    25    43    1
    46    26    29   ar
    47    26    45    1
    48    27    30    1
    49    27    31    1
    50    28    29   ar
    51    28    46    1
    52    30    47    1
    53    30    51    1
    54    30    52    1
    55    31    48    1
    56    31    49    1
    57    31    50    1
