@<TRIPOS>MOLECULE
IMPHY010801
 46 51 0 0 0
SMALL
GASTEIGER

@<TRIPOS>ATOM
      1 C           5.7566  -13.9531    0.0000 C.3     1  UNL1        0.0308
      2 C           4.6085  -14.6228    0.0000 C.3     1  UNL1        0.0312
      3 C           3.4604  -13.9531    0.0000 C.ar    1  UNL1       -0.0158
      4 C           3.4604  -12.6136    0.0000 C.ar    1  UNL1        0.0349
      5 C           2.2963  -11.9598    0.0000 C.ar    1  UNL1        0.1984
      6 C           1.1481  -12.6295    0.0000 C.ar    1  UNL1        0.0789
      7 C           1.1481  -13.9531    0.0000 C.ar    1  UNL1        0.1416
      8 C           2.2963  -14.6228    0.0000 C.ar    1  UNL1        0.0329
      9 C           5.7566  -12.6295    0.0000 C.ar    1  UNL1       -0.0223
     10 C           6.9048  -11.9598    0.0000 C.ar    1  UNL1        0.0172
     11 C           6.9048  -10.6362    0.0000 C.ar    1  UNL1        0.1918
     12 C           5.7566   -9.9665    0.0000 C.ar    1  UNL1        0.0446
     13 C           4.6085  -10.6362    0.0000 C.ar    1  UNL1        0.0031
     14 C           4.6085  -11.9598    0.0000 C.ar    1  UNL1       -0.0013
     15 O           2.2963  -10.6362    0.0000 O.3     1  UNL1       -0.2865
     16 O           0.0000  -14.6228    0.0000 O.3     1  UNL1       -0.4713
     17 C           0.0000  -15.9464    0.0000 C.3     1  UNL1        0.2525
     18 C           8.0689  -12.6295    0.0000 C.3     1  UNL1        0.0546
     19 C           8.0689  -13.9531    0.0000 C.2     1  UNL1       -0.0298
     20 C           9.2170  -14.6228    0.0000 C.2     1  UNL1       -0.0475
     21 C           9.2170  -15.9464    0.0000 C.3     1  UNL1        0.0260
     22 O           8.0689   -9.9665    0.0000 O.3     1  UNL1       -0.2869
     23 C           5.7566   -8.6429    0.0000 C.ar    1  UNL1        0.0759
     24 C           4.6085   -7.9732    0.0000 C.ar    1  UNL1        0.1983
     25 C           4.6085   -6.6496    0.0000 C.ar    1  UNL1        0.0349
     26 C           5.7566   -5.9799    0.0000 C.ar    1  UNL1       -0.0158
     27 C           5.7566   -4.6404    0.0000 C.3     1  UNL1        0.0312
     28 C           4.6085   -3.9866    0.0000 C.3     1  UNL1        0.0308
     29 C           3.4604   -4.6404    0.0000 C.ar    1  UNL1       -0.0223
     30 C           2.2963   -3.9866    0.0000 C.ar    1  UNL1        0.0172
     31 C           1.1481   -4.6404    0.0000 C.ar    1  UNL1        0.1917
     32 C           1.1481   -5.9799    0.0000 C.ar    1  UNL1        0.0417
     33 C           2.2963   -6.6496    0.0000 C.ar    1  UNL1        0.0030
     34 C           3.4604   -5.9799    0.0000 C.ar    1  UNL1       -0.0013
     35 C           6.9048   -7.9732    0.0000 C.ar    1  UNL1        0.1415
     36 C           6.9048   -6.6496    0.0000 C.ar    1  UNL1        0.0329
     37 C          10.3651  -13.9531    0.0000 C.3     1  UNL1        0.0260
     38 O           3.4604   -8.6429    0.0000 O.3     1  UNL1       -0.2865
     39 C           2.2963   -2.6630    0.0000 C.3     1  UNL1        0.0546
     40 C           3.4604   -1.9933    0.0000 C.2     1  UNL1       -0.0298
     41 C           3.4604   -0.6538    0.0000 C.2     1  UNL1       -0.0475
     42 C           4.6085    0.0000    0.0000 C.3     1  UNL1        0.0260
     43 O           0.0000   -3.9866    0.0000 O.3     1  UNL1       -0.2869
     44 O           8.0689   -8.6429    0.0000 O.3     1  UNL1       -0.4713
     45 C           9.2170   -7.9732    0.0000 C.3     1  UNL1        0.2525
     46 C           2.2963    0.0000    0.0000 C.3     1  UNL1        0.0260
@<TRIPOS>BOND
     1     1     9    1
     2     1     2    1
     3     2     3    1
     4     3     4   ar
     5     3     8   ar
     6     4    14    1
     7     4     5   ar
     8     5     6   ar
     9     5    15    1
    10     6     7   ar
    11     7     8   ar
    12     7    16    1
    13     9    10   ar
    14     9    14   ar
    15    10    11   ar
    16    10    18    1
    17    11    12   ar
    18    11    22    1
    19    12    23    1
    20    12    13   ar
    21    13    14   ar
    22    16    17    1
    23    18    19    1
    24    19    20    2
    25    20    21    1
    26    20    37    1
    27    23    35   ar
    28    23    24   ar
    29    24    25   ar
    30    24    38    1
    31    25    34    1
    32    25    26   ar
    33    26    27    1
    34    26    36   ar
    35    27    28    1
    36    28    29    1
    37    29    30   ar
    38    29    34   ar
    39    30    31   ar
    40    30    39    1
    41    31    32   ar
    42    31    43    1
    43    32    33   ar
    44    33    34   ar
    45    35    36   ar
    46    35    44    1
    47    39    40    1
    48    40    41    2
    49    41    42    1
    50    41    46    1
    51    44    45    1
