@<TRIPOS>MOLECULE
IMPHY010535
 29 31 0 0 0
SMALL
GASTEIGER

@<TRIPOS>ATOM
      1 O           2.8641   -0.2119    0.0000 O.3     1  UNL1       -0.4577
      2 O           7.3424   -1.5374    0.0000 O.2     1  UNL1       -0.4628
      3 O           5.5301    1.2673    0.0000 O.3     1  UNL1       -0.4936
      4 O           3.7817    1.3019    0.0000 O.2     1  UNL1       -0.2448
      5 C           3.7702   -1.7673    0.0000 C.3     1  UNL1        0.0104
      6 C           4.6641   -1.2327    0.0000 C.ar    1  UNL1       -0.0229
      7 C           2.8641   -1.2535    0.0000 C.3     1  UNL1        0.1046
      8 C           4.6641   -0.2327    0.0000 C.ar    1  UNL1        0.1046
      9 C           5.5301    0.2673    0.0000 C.ar    1  UNL1        0.1450
     10 C           5.5301   -1.7327    0.0000 C.ar    1  UNL1       -0.0145
     11 C           6.3961   -0.2327    0.0000 C.ar    1  UNL1        0.0625
     12 C           6.3961   -1.2327    0.0000 C.ar    1  UNL1        0.1386
     13 C           3.7702    0.3020    0.0000 C.2     1  UNL1        0.3433
     14 C           2.0000   -1.7568    0.0000 C.3     1  UNL1       -0.0274
     15 C           7.3424    0.0721    0.0000 C.ar    1  UNL1       -0.0126
     16 C           7.9260   -0.7327    0.0000 C.ar    1  UNL1        0.0932
     17 C           6.3961    1.7673    0.0000 C.3     1  UNL1        0.0788
     18 H           3.3765   -2.2464    0.0000 H       1  UNL1        0.0349
     19 H           4.1748   -2.2371    0.0000 H       1  UNL1        0.0349
     20 H           2.3266   -0.9445    0.0000 H       1  UNL1        0.0734
     21 H           5.5301   -2.3527    0.0000 H       1  UNL1        0.0657
     22 H           1.6879   -1.2211    0.0000 H       1  UNL1        0.0265
     23 H           1.4643   -2.0689    0.0000 H       1  UNL1        0.0265
     24 H           2.3121   -2.2926    0.0000 H       1  UNL1        0.0265
     25 H           7.5350    0.6614    0.0000 H       1  UNL1        0.0656
     26 H           8.5460   -0.7327    0.0000 H       1  UNL1        0.1030
     27 H           6.7062    1.2304    0.0000 H       1  UNL1        0.0660
     28 H           6.9331    2.0773    0.0000 H       1  UNL1        0.0660
     29 H           6.0862    2.3043    0.0000 H       1  UNL1        0.0660
@<TRIPOS>BOND
     1     1     7    1
     2     1    13    1
     3     2    12   ar
     4     2    16   ar
     5     3     9    1
     6     3    17    1
     7     4    13    2
     8     5     6    1
     9     5     7    1
    10     5    18    1
    11     5    19    1
    12     6     8   ar
    13     6    10   ar
    14     7    14    1
    15     7    20    1
    16     8     9   ar
    17     8    13    1
    18     9    11   ar
    19    10    12   ar
    20    10    21    1
    21    11    12   ar
    22    11    15   ar
    23    14    22    1
    24    14    23    1
    25    14    24    1
    26    15    16   ar
    27    15    25    1
    28    16    26    1
    29    17    27    1
    30    17    28    1
    31    17    29    1
