@<TRIPOS>MOLECULE
IMPHY013411
 91 96 0 0 0
SMALL
GASTEIGER

@<TRIPOS>ATOM
      1 O           7.7331   -1.6709    0.0000 O.3     1  UNL1       -0.3378
      2 O           6.8671   -3.1709    0.0000 O.3     1  UNL1       -0.3174
      3 O           5.1350   -3.1709    0.0000 O.3     1  UNL1       -0.3404
      4 O           5.1350   -2.1709    0.0000 O.3     1  UNL1       -0.3841
      5 O           5.1350   -0.1709    0.0000 O.3     1  UNL1       -0.3864
      6 O           6.8671    0.8291    0.0000 O.3     1  UNL1       -0.3862
      7 O           6.8671   -5.1709    0.0000 O.3     1  UNL1       -0.3841
      8 O           5.1350   -6.1709    0.0000 O.3     1  UNL1       -0.3864
      9 O           3.4030   -5.1709    0.0000 O.3     1  UNL1       -0.3865
     10 O          15.5851    3.8609    0.0000 O.3     1  UNL1       -0.3313
     11 O           2.5369   -3.6709    0.0000 O.3     1  UNL1       -0.3924
     12 O          14.7133    2.3642    0.0000 O.3     1  UNL1       -0.4572
     13 O          18.1773    2.3509    0.0000 O.3     1  UNL1       -0.3864
     14 O          18.1851    4.3509    0.0000 O.3     1  UNL1       -0.3865
     15 O          16.4415    1.3576    0.0000 O.3     1  UNL1       -0.3829
     16 O           7.7331    1.3291    0.0000 O.3     1  UNL1       -0.5054
     17 O           9.4651   -1.6709    0.0000 O.3     1  UNL1       -0.5062
     18 O          11.2412    1.3360    0.0000 O.2     1  UNL1       -0.4544
     19 O          15.5928    5.8609    0.0000 O.3     1  UNL1       -0.3924
     20 O           8.5773    2.8606    0.0000 O.2     1  UNL1       -0.2869
     21 O          14.7210    4.3642    0.0000 O.3     1  UNL1       -0.5033
     22 C           6.8671   -2.1709    0.0000 C.3     1  UNL1        0.1912
     23 C           6.0010   -1.6709    0.0000 C.3     1  UNL1        0.1342
     24 C           6.0010   -0.6709    0.0000 C.3     1  UNL1        0.1143
     25 C           6.8671   -0.1709    0.0000 C.3     1  UNL1        0.1141
     26 C           7.7331   -0.6709    0.0000 C.3     1  UNL1        0.1218
     27 C           6.0010   -3.6709    0.0000 C.3     1  UNL1        0.1909
     28 C           6.0010   -4.6709    0.0000 C.3     1  UNL1        0.1342
     29 C           5.1350   -5.1709    0.0000 C.3     1  UNL1        0.1141
     30 C           4.2690   -4.6709    0.0000 C.3     1  UNL1        0.1119
     31 C           4.2690   -3.6709    0.0000 C.3     1  UNL1        0.1130
     32 C           8.5991   -0.1709    0.0000 C.ar    1  UNL1        0.0674
     33 C           3.4030   -3.1709    0.0000 C.3     1  UNL1        0.0730
     34 C          17.3133    2.8542    0.0000 C.3     1  UNL1        0.1152
     35 C          17.3171    3.8542    0.0000 C.3     1  UNL1        0.1120
     36 C          16.4453    2.3575    0.0000 C.3     1  UNL1        0.1454
     37 C          16.4530    4.3575    0.0000 C.3     1  UNL1        0.1140
     38 C          15.5812    2.8609    0.0000 C.3     1  UNL1        0.2310
     39 C           8.5991    0.8291    0.0000 C.ar    1  UNL1        0.1404
     40 C           9.4651   -0.6709    0.0000 C.ar    1  UNL1        0.1296
     41 C           9.4651    1.3291    0.0000 C.ar    1  UNL1        0.1058
     42 C          16.4569    5.3575    0.0000 C.3     1  UNL1        0.0731
     43 C          10.3312   -0.1709    0.0000 C.ar    1  UNL1        0.0235
     44 C          10.3312    0.8291    0.0000 C.ar    1  UNL1        0.1463
     45 C           9.4491    2.3706    0.0000 C.ar    1  UNL1        0.1966
     46 C          13.8492    2.8676    0.0000 C.ar    1  UNL1        0.1658
     47 C          11.2492    2.3776    0.0000 C.ar    1  UNL1        0.1393
     48 C          10.3471    2.8984    0.0000 C.ar    1  UNL1        0.0288
     49 C          12.1171    2.8742    0.0000 C.ar    1  UNL1        0.0211
     50 C          12.9812    2.3709    0.0000 C.ar    1  UNL1       -0.0055
     51 C          13.8530    3.8676    0.0000 C.ar    1  UNL1        0.1586
     52 C          12.1210    3.8742    0.0000 C.ar    1  UNL1       -0.0474
     53 C          12.9889    4.3709    0.0000 C.ar    1  UNL1       -0.0159
     54 H           6.3301   -2.4809    0.0000 H       1  UNL1        0.0939
     55 H           5.4641   -1.3609    0.0000 H       1  UNL1        0.0671
     56 H           6.0010   -0.0509    0.0000 H       1  UNL1        0.0648
     57 H           7.4040    0.1391    0.0000 H       1  UNL1        0.0649
     58 H           8.4692   -1.0959    0.0000 H       1  UNL1        0.0677
     59 H           6.0010   -3.0509    0.0000 H       1  UNL1        0.0938
     60 H           6.0010   -5.2909    0.0000 H       1  UNL1        0.0671
     61 H           4.5981   -5.4809    0.0000 H       1  UNL1        0.0648
     62 H           4.2690   -5.2909    0.0000 H       1  UNL1        0.0647
     63 H           4.2690   -3.0509    0.0000 H       1  UNL1        0.0647
     64 H           3.8015   -2.6959    0.0000 H       1  UNL1        0.0584
     65 H           3.0044   -2.6959    0.0000 H       1  UNL1        0.0584
     66 H          17.8514    3.1621    0.0000 H       1  UNL1        0.0648
     67 H          17.8528    3.5421    0.0000 H       1  UNL1        0.0647
     68 H          16.9810    2.0455    0.0000 H       1  UNL1        0.0683
     69 H          15.9173    4.6696    0.0000 H       1  UNL1        0.0647
     70 H          15.5788    2.2409    0.0000 H       1  UNL1        0.1084
     71 H           4.5981   -1.8609    0.0000 H       1  UNL1        0.2101
     72 H           4.5981   -0.4809    0.0000 H       1  UNL1        0.2100
     73 H           6.3301    1.1391    0.0000 H       1  UNL1        0.2100
     74 H           7.4040   -4.8609    0.0000 H       1  UNL1        0.2101
     75 H           5.6720   -6.4809    0.0000 H       1  UNL1        0.2100
     76 H           3.4030   -5.7909    0.0000 H       1  UNL1        0.2100
     77 H          17.0670    5.2475    0.0000 H       1  UNL1        0.0584
     78 H          16.6712    5.9393    0.0000 H       1  UNL1        0.0584
     79 H          10.8681   -0.4809    0.0000 H       1  UNL1        0.0691
     80 H           2.0000   -3.3609    0.0000 H       1  UNL1        0.2095
     81 H          18.7155    2.6588    0.0000 H       1  UNL1        0.2100
     82 H          18.1874    4.9709    0.0000 H       1  UNL1        0.2100
     83 H          16.9772    1.0455    0.0000 H       1  UNL1        0.2102
     84 H           7.7331    1.9491    0.0000 H       1  UNL1        0.2922
     85 H          10.0021   -1.9809    0.0000 H       1  UNL1        0.2922
     86 H          10.3447    3.5184    0.0000 H       1  UNL1        0.0693
     87 H          12.9788    1.7509    0.0000 H       1  UNL1        0.0662
     88 H          15.5952    6.4809    0.0000 H       1  UNL1        0.2095
     89 H          11.5853    4.1863    0.0000 H       1  UNL1        0.0626
     90 H          12.9913    4.9909    0.0000 H       1  UNL1        0.0655
     91 H          14.7234    4.9842    0.0000 H       1  UNL1        0.2923
@<TRIPOS>BOND
     1     1    22    1
     2     1    26    1
     3     2    22    1
     4    27     2    1
     5     3    27    1
     6     3    31    1
     7    23     4    1
     8     4    71    1
     9    24     5    1
    10     5    72    1
    11     6    25    1
    12     6    73    1
    13     7    28    1
    14     7    74    1
    15    29     8    1
    16     8    75    1
    17    30     9    1
    18     9    76    1
    19    10    37    1
    20    10    38    1
    21    11    33    1
    22    11    80    1
    23    38    12    1
    24    12    46    1
    25    34    13    1
    26    13    81    1
    27    35    14    1
    28    14    82    1
    29    15    36    1
    30    15    83    1
    31    16    39    1
    32    16    84    1
    33    17    40    1
    34    17    85    1
    35    18    44   ar
    36    18    47   ar
    37    19    42    1
    38    19    88    1
    39    20    45    2
    40    21    51    1
    41    21    91    1
    42    22    23    1
    43    22    54    1
    44    23    24    1
    45    23    55    1
    46    24    25    1
    47    24    56    1
    48    25    26    1
    49    25    57    1
    50    26    32    1
    51    26    58    1
    52    27    28    1
    53    27    59    1
    54    28    29    1
    55    28    60    1
    56    29    30    1
    57    29    61    1
    58    30    31    1
    59    30    62    1
    60    31    33    1
    61    31    63    1
    62    32    39   ar
    63    32    40   ar
    64    33    64    1
    65    33    65    1
    66    34    35    1
    67    34    36    1
    68    34    66    1
    69    35    37    1
    70    35    67    1
    71    36    38    1
    72    36    68    1
    73    37    42    1
    74    37    69    1
    75    38    70    1
    76    39    41   ar
    77    40    43   ar
    78    41    44   ar
    79    41    45   ar
    80    42    77    1
    81    42    78    1
    82    43    44   ar
    83    43    79    1
    84    45    48   ar
    85    46    50   ar
    86    46    51   ar
    87    47    48   ar
    88    47    49    1
    89    48    86    1
    90    49    50   ar
    91    49    52   ar
    92    50    87    1
    93    51    53   ar
    94    52    53   ar
    95    52    89    1
    96    53    90    1
