@<TRIPOS>MOLECULE
IMPHY007243
 27 29 0 0 0
SMALL
GASTEIGER

@<TRIPOS>ATOM
      1 O           3.7702   -1.7673    0.0000 O.2     1  UNL1       -0.4595
      2 O           7.3424   -1.5374    0.0000 O.2     1  UNL1       -0.4627
      3 O           5.5301    1.2673    0.0000 O.3     1  UNL1       -0.4936
      4 O           3.7817    1.3019    0.0000 O.2     1  UNL1       -0.2869
      5 C           4.6641   -0.2327    0.0000 C.ar    1  UNL1        0.1063
      6 C           6.3961   -0.2327    0.0000 C.ar    1  UNL1        0.0627
      7 C           5.5301    0.2673    0.0000 C.ar    1  UNL1        0.1452
      8 C           4.6641   -1.2327    0.0000 C.ar    1  UNL1        0.1458
      9 C           6.3961   -1.2327    0.0000 C.ar    1  UNL1        0.1418
     10 C           5.5301   -1.7327    0.0000 C.ar    1  UNL1        0.0245
     11 C           3.7702    0.3020    0.0000 C.ar    1  UNL1        0.1963
     12 C           7.3424    0.0721    0.0000 C.ar    1  UNL1       -0.0126
     13 C           2.8641   -1.2535    0.0000 C.ar    1  UNL1        0.1062
     14 C           2.8641   -0.2119    0.0000 C.ar    1  UNL1        0.0237
     15 C           7.9260   -0.7327    0.0000 C.ar    1  UNL1        0.0933
     16 C           2.0000   -1.7568    0.0000 C.3     1  UNL1       -0.0062
     17 C           6.3961    1.7673    0.0000 C.3     1  UNL1        0.0788
     18 H           5.5301   -2.3527    0.0000 H       1  UNL1        0.0692
     19 H           7.5350    0.6614    0.0000 H       1  UNL1        0.0656
     20 H           2.3284    0.1002    0.0000 H       1  UNL1        0.0689
     21 H           8.5460   -0.7327    0.0000 H       1  UNL1        0.1030
     22 H           1.6879   -1.2211    0.0000 H       1  UNL1        0.0308
     23 H           1.4643   -2.0689    0.0000 H       1  UNL1        0.0308
     24 H           2.3121   -2.2926    0.0000 H       1  UNL1        0.0308
     25 H           6.7062    1.2304    0.0000 H       1  UNL1        0.0660
     26 H           6.9331    2.0773    0.0000 H       1  UNL1        0.0660
     27 H           6.0862    2.3043    0.0000 H       1  UNL1        0.0660
@<TRIPOS>BOND
     1     1     8   ar
     2     1    13   ar
     3     2     9   ar
     4     2    15   ar
     5     3     7    1
     6     3    17    1
     7     4    11    2
     8     5     7   ar
     9     5     8   ar
    10     5    11   ar
    11     6     7   ar
    12     6     9   ar
    13     6    12   ar
    14     8    10   ar
    15     9    10   ar
    16    10    18    1
    17    11    14   ar
    18    12    15   ar
    19    12    19    1
    20    13    14   ar
    21    13    16    1
    22    14    20    1
    23    15    21    1
    24    16    22    1
    25    16    23    1
    26    16    24    1
    27    17    25    1
    28    17    26    1
    29    17    27    1
