@<TRIPOS>MOLECULE
IMPHY010493
 70 74 0 0 0
SMALL
GASTEIGER

@<TRIPOS>ATOM
      1 O           9.4931   -2.0969    0.0000 O.3     1  UNL1       -0.4811
      2 O          11.2632   -0.0381    0.0000 O.3     1  UNL1       -0.3875
      3 O           6.8671    1.4377    0.0000 O.3     1  UNL1       -0.3905
      4 O           7.7331    0.9377    0.0000 O.3     1  UNL1       -0.5060
      5 O           6.0010   -2.0623    0.0000 O.3     1  UNL1       -0.5062
      6 O           2.5369   -0.0623    0.0000 O.3     1  UNL1       -0.5033
      7 O           6.1350    3.1698    0.0000 O.3     1  UNL1       -0.5063
      8 O           3.1350    1.4377    0.0000 O.3     1  UNL1       -0.5063
      9 O           2.5369   -2.0623    0.0000 O.3     1  UNL1       -0.5033
     10 O          12.1196   -4.5898    0.0000 O.3     1  UNL1       -0.5033
     11 O          13.8555   -3.5964    0.0000 O.3     1  UNL1       -0.5033
     12 O           3.1350    4.9018    0.0000 O.3     1  UNL1       -0.5065
     13 C           6.0010   -0.0623    0.0000 C.3     1  UNL1        0.0425
     14 C          10.3991   -0.5415    0.0000 C.3     1  UNL1        0.1004
     15 C           9.4931   -0.0276    0.0000 C.3     1  UNL1        0.0092
     16 C           8.5991   -0.5623    0.0000 C.ar    1  UNL1        0.0387
     17 C           6.8671   -0.5623    0.0000 C.ar    1  UNL1        0.0457
     18 C          10.3991   -1.5831    0.0000 C.3     1  UNL1        0.1513
     19 C           6.0010    0.9377    0.0000 C.3     1  UNL1        0.0704
     20 C           7.7331   -0.0623    0.0000 C.ar    1  UNL1        0.1309
     21 C           8.5991   -1.5623    0.0000 C.ar    1  UNL1        0.1317
     22 C           5.1350   -0.5623    0.0000 C.ar    1  UNL1       -0.0336
     23 C           5.1350    1.4377    0.0000 C.3     1  UNL1        0.0063
     24 C           6.8671   -1.5623    0.0000 C.ar    1  UNL1        0.1276
     25 C           7.7331   -2.0623    0.0000 C.ar    1  UNL1        0.0224
     26 C          11.2632   -2.0864    0.0000 C.ar    1  UNL1       -0.0012
     27 C           4.6350    2.3037    0.0000 C.ar    1  UNL1        0.0381
     28 C           4.2690   -0.0623    0.0000 C.ar    1  UNL1       -0.0127
     29 C           5.1350   -1.5623    0.0000 C.ar    1  UNL1       -0.0542
     30 C          11.2594   -3.0864    0.0000 C.ar    1  UNL1       -0.0098
     31 C          12.1312   -1.5898    0.0000 C.ar    1  UNL1       -0.0513
     32 C           3.4030   -0.5623    0.0000 C.ar    1  UNL1        0.1585
     33 C           5.1350    3.1698    0.0000 C.ar    1  UNL1        0.1270
     34 C           3.6350    2.3037    0.0000 C.ar    1  UNL1        0.1270
     35 C           4.2690   -2.0623    0.0000 C.ar    1  UNL1       -0.0163
     36 C           3.4030   -1.5623    0.0000 C.ar    1  UNL1        0.1582
     37 C          12.1235   -3.5898    0.0000 C.ar    1  UNL1        0.1586
     38 C          12.9953   -2.0931    0.0000 C.ar    1  UNL1       -0.0162
     39 C          12.9914   -3.0931    0.0000 C.ar    1  UNL1        0.1582
     40 C           4.6350    4.0358    0.0000 C.ar    1  UNL1        0.0218
     41 C           3.1350    3.1698    0.0000 C.ar    1  UNL1        0.0218
     42 C           3.6350    4.0358    0.0000 C.ar    1  UNL1        0.1238
     43 H           5.4641    0.2477    0.0000 H       1  UNL1        0.0425
     44 H          10.3955    0.0785    0.0000 H       1  UNL1        0.0637
     45 H           9.8867    0.4514    0.0000 H       1  UNL1        0.0342
     46 H           9.0885    0.4422    0.0000 H       1  UNL1        0.0342
     47 H          10.3955   -2.2031    0.0000 H       1  UNL1        0.0811
     48 H           6.5380    0.6277    0.0000 H       1  UNL1        0.0606
     49 H           4.5244    1.3301    0.0000 H       1  UNL1        0.0341
     50 H           5.5734    1.8761    0.0000 H       1  UNL1        0.0341
     51 H           7.7331   -2.6823    0.0000 H       1  UNL1        0.0691
     52 H           4.2690    0.5577    0.0000 H       1  UNL1        0.0658
     53 H           5.6720   -1.8723    0.0000 H       1  UNL1        0.0622
     54 H          11.2608    0.5819    0.0000 H       1  UNL1        0.2100
     55 H           6.8671    2.0577    0.0000 H       1  UNL1        0.2098
     56 H          10.7212   -3.3944    0.0000 H       1  UNL1        0.0659
     57 H          12.1336   -0.9698    0.0000 H       1  UNL1        0.0623
     58 H           8.2700    1.2477    0.0000 H       1  UNL1        0.2922
     59 H           6.0010   -2.6823    0.0000 H       1  UNL1        0.2921
     60 H           4.2690   -2.6823    0.0000 H       1  UNL1        0.0655
     61 H          13.5334   -1.7852    0.0000 H       1  UNL1        0.0655
     62 H           4.9450    4.5727    0.0000 H       1  UNL1        0.0691
     63 H           2.5150    3.1698    0.0000 H       1  UNL1        0.0691
     64 H           2.0000   -0.3723    0.0000 H       1  UNL1        0.2923
     65 H           6.4450    3.7067    0.0000 H       1  UNL1        0.2921
     66 H           2.5150    1.4377    0.0000 H       1  UNL1        0.2921
     67 H           2.5369   -2.6823    0.0000 H       1  UNL1        0.2923
     68 H          12.6553   -4.9018    0.0000 H       1  UNL1        0.2923
     69 H          14.3936   -3.2885    0.0000 H       1  UNL1        0.2923
     70 H           2.5150    4.9018    0.0000 H       1  UNL1        0.2921
@<TRIPOS>BOND
     1     1    18    1
     2     1    21    1
     3    14     2    1
     4     2    54    1
     5    19     3    1
     6     3    55    1
     7     4    20    1
     8     4    58    1
     9     5    24    1
    10     5    59    1
    11     6    32    1
    12     6    64    1
    13     7    33    1
    14     7    65    1
    15     8    34    1
    16     8    66    1
    17     9    36    1
    18     9    67    1
    19    10    37    1
    20    10    68    1
    21    11    39    1
    22    11    69    1
    23    12    42    1
    24    12    70    1
    25    13    17    1
    26    13    19    1
    27    13    22    1
    28    13    43    1
    29    14    15    1
    30    14    18    1
    31    14    44    1
    32    15    16    1
    33    15    45    1
    34    15    46    1
    35    16    20   ar
    36    16    21   ar
    37    17    20   ar
    38    17    24   ar
    39    18    26    1
    40    18    47    1
    41    19    23    1
    42    19    48    1
    43    21    25   ar
    44    22    28   ar
    45    22    29   ar
    46    23    27    1
    47    23    49    1
    48    23    50    1
    49    24    25   ar
    50    25    51    1
    51    26    30   ar
    52    26    31   ar
    53    27    33   ar
    54    27    34   ar
    55    28    32   ar
    56    28    52    1
    57    29    35   ar
    58    29    53    1
    59    30    37   ar
    60    30    56    1
    61    31    38   ar
    62    31    57    1
    63    32    36   ar
    64    33    40   ar
    65    34    41   ar
    66    35    36   ar
    67    35    60    1
    68    37    39   ar
    69    38    39   ar
    70    38    61    1
    71    40    42   ar
    72    40    62    1
    73    41    42   ar
    74    41    63    1
