@<TRIPOS>MOLECULE
IMPHY003367
 48 53 0 0 0
SMALL
GASTEIGER

@<TRIPOS>ATOM
      1 O           4.5732    3.5673    0.0000 O.3     1  UNL1       -0.4522
      2 O           3.1278    4.4167    0.0000 O.3     1  UNL1       -0.4526
      3 O           5.5740   -3.5278    0.0000 O.3     1  UNL1       -0.4526
      4 O           4.0684   -4.4125    0.0000 O.3     1  UNL1       -0.4526
      5 O           6.3821    0.3368    0.0000 O.2     1  UNL1       -0.2976
      6 N           4.6501    0.3368    0.0000 N.pl3   1  UNL1       -0.3244
      7 C           4.6501    1.3368    0.0000 C.3     1  UNL1        0.0592
      8 C           3.7841    1.8368    0.0000 C.ar    1  UNL1        0.0264
      9 C           3.7841   -0.1632    0.0000 C.ar    1  UNL1        0.0457
     10 C           2.9180    1.3368    0.0000 C.ar    1  UNL1       -0.0074
     11 C           2.9180    0.3368    0.0000 C.ar    1  UNL1        0.0042
     12 C           5.5161    1.8368    0.0000 C.3     1  UNL1        0.0284
     13 C           3.8001   -1.2047    0.0000 C.ar    1  UNL1        0.0074
     14 C           3.8001    2.8783    0.0000 C.ar    1  UNL1        0.1717
     15 C           5.5161   -0.1632    0.0000 C.3     1  UNL1        0.0013
     16 C           2.9021   -1.7324    0.0000 C.ar    1  UNL1       -0.0124
     17 C           2.0080   -0.1700    0.0000 C.ar    1  UNL1       -0.0517
     18 C           2.0080    1.8437    0.0000 C.ar    1  UNL1       -0.0500
     19 C           2.9021    3.4061    0.0000 C.ar    1  UNL1        0.1666
     20 C           2.0000   -1.2116    0.0000 C.ar    1  UNL1       -0.0532
     21 C           2.0000    2.8853    0.0000 C.ar    1  UNL1       -0.0155
     22 C           4.7520   -1.7253    0.0000 C.ar    1  UNL1       -0.0066
     23 C           6.3821    1.3368    0.0000 C.2     1  UNL1        0.1324
     24 C           2.8937   -2.8174    0.0000 C.ar    1  UNL1       -0.0084
     25 C           4.7688   -2.8102    0.0000 C.ar    1  UNL1        0.1669
     26 C           3.8334   -3.3599    0.0000 C.ar    1  UNL1        0.1668
     27 C           4.1585    4.5161    0.0000 C.3     1  UNL1        0.2332
     28 C           7.2482    1.8368    0.0000 C.3     1  UNL1       -0.0060
     29 C           5.1420   -4.5161    0.0000 C.3     1  UNL1        0.2332
     30 H           5.1870    1.0268    0.0000 H       1  UNL1        0.0555
     31 H           5.9146    2.3118    0.0000 H       1  UNL1        0.0363
     32 H           5.1176    2.3118    0.0000 H       1  UNL1        0.0363
     33 H           5.2061   -0.7001    0.0000 H       1  UNL1        0.0428
     34 H           6.0530   -0.4732    0.0000 H       1  UNL1        0.0428
     35 H           5.8261    0.3738    0.0000 H       1  UNL1        0.0428
     36 H           1.4747    0.1462    0.0000 H       1  UNL1        0.0624
     37 H           1.4747    1.5275    0.0000 H       1  UNL1        0.0625
     38 H           1.4619   -1.5195    0.0000 H       1  UNL1        0.0624
     39 H           1.4619    3.1932    0.0000 H       1  UNL1        0.0655
     40 H           5.2829   -1.4050    0.0000 H       1  UNL1        0.0662
     41 H           2.3556   -3.1253    0.0000 H       1  UNL1        0.0661
     42 H           4.7495    4.7033    0.0000 H       1  UNL1        0.1166
     43 H           4.0344    5.1235    0.0000 H       1  UNL1        0.1166
     44 H           7.5582    1.2999    0.0000 H       1  UNL1        0.0306
     45 H           7.7851    2.1468    0.0000 H       1  UNL1        0.0306
     46 H           6.9382    2.3738    0.0000 H       1  UNL1        0.0306
     47 H           5.0180   -5.1235    0.0000 H       1  UNL1        0.1166
     48 H           5.7331   -4.7033    0.0000 H       1  UNL1        0.1166
@<TRIPOS>BOND
     1     1    14    1
     2     1    27    1
     3     2    19    1
     4     2    27    1
     5     3    25    1
     6     3    29    1
     7     4    26    1
     8     4    29    1
     9     5    23    2
    10     6     7    1
    11     6     9    1
    12     6    15    1
    13     7     8    1
    14     7    12    1
    15     7    30    1
    16     8    10   ar
    17     8    14   ar
    18     9    11   ar
    19     9    13   ar
    20    10    11    1
    21    10    18   ar
    22    11    17   ar
    23    12    23    1
    24    12    31    1
    25    12    32    1
    26    13    16   ar
    27    13    22   ar
    28    14    19   ar
    29    15    33    1
    30    15    34    1
    31    15    35    1
    32    16    20   ar
    33    16    24   ar
    34    17    20   ar
    35    17    36    1
    36    18    21   ar
    37    18    37    1
    38    19    21   ar
    39    20    38    1
    40    21    39    1
    41    22    25   ar
    42    22    40    1
    43    23    28    1
    44    24    26   ar
    45    24    41    1
    46    25    26   ar
    47    27    42    1
    48    27    43    1
    49    28    44    1
    50    28    45    1
    51    28    46    1
    52    29    47    1
    53    29    48    1
