@<TRIPOS>MOLECULE
IMPHY006932
 37 38 0 0 0
SMALL
GASTEIGER

@<TRIPOS>ATOM
      1 C           2.9511    1.2306    0.0000 C.3     1  UNL1       -0.0019
      2 C           3.9511    1.2306    0.0000 C.3     1  UNL1       -0.0255
      3 C           2.6420    2.1816    0.0000 C.3     1  UNL1       -0.0431
      4 C           4.2601    2.1816    0.0000 C.3     1  UNL1       -0.0470
      5 C           3.4511    2.7694    0.0000 C.3     1  UNL1       -0.0517
      6 C           2.9511    0.2306    0.0000 C.ar    1  UNL1       -0.0409
      7 C           2.0000    0.9216    0.0000 C.3     1  UNL1       -0.0550
      8 C           4.9021    0.9216    0.0000 C.3     1  UNL1       -0.0590
      9 C           4.4511    0.3646    0.0000 C.3     1  UNL1       -0.0590
     10 C           2.0850   -0.2694    0.0000 C.ar    1  UNL1       -0.0578
     11 C           3.8171   -0.2694    0.0000 C.ar    1  UNL1       -0.0578
     12 C           2.0850   -1.2694    0.0000 C.ar    1  UNL1       -0.0586
     13 C           3.8171   -1.2694    0.0000 C.ar    1  UNL1       -0.0586
     14 C           2.9511   -1.7694    0.0000 C.ar    1  UNL1       -0.0504
     15 C           2.9511   -2.7694    0.0000 C.3     1  UNL1       -0.0397
     16 H           2.3320    2.7186    0.0000 H       1  UNL1        0.0274
     17 H           2.0756    1.9295    0.0000 H       1  UNL1        0.0274
     18 H           4.8265    1.9295    0.0000 H       1  UNL1        0.0271
     19 H           4.5701    2.7186    0.0000 H       1  UNL1        0.0271
     20 H           3.8659    3.2302    0.0000 H       1  UNL1        0.0266
     21 H           3.0362    3.2302    0.0000 H       1  UNL1        0.0266
     22 H           1.8084    1.5112    0.0000 H       1  UNL1        0.0238
     23 H           1.4103    0.7300    0.0000 H       1  UNL1        0.0238
     24 H           2.1916    0.3319    0.0000 H       1  UNL1        0.0238
     25 H           4.7105    0.3319    0.0000 H       1  UNL1        0.0235
     26 H           5.4918    0.7300    0.0000 H       1  UNL1        0.0235
     27 H           5.0937    1.5112    0.0000 H       1  UNL1        0.0235
     28 H           3.9142    0.0545    0.0000 H       1  UNL1        0.0235
     29 H           4.7612   -0.1723    0.0000 H       1  UNL1        0.0235
     30 H           4.9880    0.6747    0.0000 H       1  UNL1        0.0235
     31 H           1.5481    0.0406    0.0000 H       1  UNL1        0.0621
     32 H           4.3540    0.0406    0.0000 H       1  UNL1        0.0621
     33 H           1.5481   -1.5794    0.0000 H       1  UNL1        0.0620
     34 H           4.3540   -1.5794    0.0000 H       1  UNL1        0.0620
     35 H           2.3311   -2.7694    0.0000 H       1  UNL1        0.0278
     36 H           2.9511   -3.3894    0.0000 H       1  UNL1        0.0278
     37 H           3.5711   -2.7694    0.0000 H       1  UNL1        0.0278
@<TRIPOS>BOND
     1     1     2    1
     2     1     3    1
     3     1     6    1
     4     1     7    1
     5     2     4    1
     6     2     8    1
     7     2     9    1
     8     3     5    1
     9     3    16    1
    10     3    17    1
    11     4     5    1
    12     4    18    1
    13     4    19    1
    14     5    20    1
    15     5    21    1
    16     6    10   ar
    17     6    11   ar
    18     7    22    1
    19     7    23    1
    20     7    24    1
    21     8    25    1
    22     8    26    1
    23     8    27    1
    24     9    28    1
    25     9    29    1
    26     9    30    1
    27    10    12   ar
    28    10    31    1
    29    11    13   ar
    30    11    32    1
    31    12    14   ar
    32    12    33    1
    33    13    14   ar
    34    13    34    1
    35    14    15    1
    36    15    35    1
    37    15    36    1
    38    15    37    1
