@<TRIPOS>MOLECULE
IMPHY008957
 27 30 0 0 0
SMALL
GASTEIGER

@<TRIPOS>ATOM
      1 O           6.5862   -2.7666    0.0000 O.3     1  UNL1       -0.4453
      2 O          12.0791   -1.2594    0.0000 O.3     1  UNL1       -0.4346
      3 O          12.0791   -2.8689    0.0000 O.3     1  UNL1       -0.4346
      4 O           5.0916   -1.7961    0.0000 O.2     1  UNL1       -0.2452
      5 O           4.2294    2.3950    0.0000 O.3     1  UNL1       -0.4684
      6 O           2.7431    1.0568    0.0000 O.3     1  UNL1       -0.4684
      7 C           7.6688   -1.5642    0.0000 C.3     1  UNL1        0.0768
      8 C           8.5349   -1.0642    0.0000 C.3     1  UNL1        0.0348
      9 C           7.5643   -2.5587    0.0000 C.3     1  UNL1        0.2135
     10 C           6.7553   -1.1574    0.0000 C.2     1  UNL1        0.0570
     11 C           9.4009   -1.5642    0.0000 C.ar    1  UNL1       -0.0185
     12 C           6.0862   -1.9006    0.0000 C.2     1  UNL1        0.3373
     13 C           6.5474   -0.1793    0.0000 C.2     1  UNL1        0.0023
     14 C          10.2669   -1.0642    0.0000 C.ar    1  UNL1        0.0359
     15 C           9.4009   -2.5642    0.0000 C.ar    1  UNL1       -0.0009
     16 C          11.1329   -1.5642    0.0000 C.ar    1  UNL1        0.1761
     17 C           5.5963    0.1297    0.0000 C.ar    1  UNL1        0.0031
     18 C          11.1329   -2.5642    0.0000 C.ar    1  UNL1        0.1764
     19 C          10.2669   -3.0642    0.0000 C.ar    1  UNL1        0.0399
     20 C           5.3884    1.1079    0.0000 C.ar    1  UNL1        0.0400
     21 C           4.8532   -0.5394    0.0000 C.ar    1  UNL1        0.0033
     22 C          12.6628   -2.0642    0.0000 C.3     1  UNL1        0.4294
     23 C           4.4373    1.4169    0.0000 C.ar    1  UNL1        0.1724
     24 C           3.9021   -0.2304    0.0000 C.ar    1  UNL1        0.0400
     25 C           3.6942    0.7478    0.0000 C.ar    1  UNL1        0.1724
     26 C           4.9726    3.0642    0.0000 C.3     1  UNL1        0.2526
     27 C           2.0000    0.3876    0.0000 C.3     1  UNL1        0.2526
@<TRIPOS>BOND
     1     1     9    1
     2     1    12    1
     3     2    16    1
     4     2    22    1
     5     3    18    1
     6     3    22    1
     7     4    12    2
     8     5    23    1
     9     5    26    1
    10     6    25    1
    11     6    27    1
    12     7     8    1
    13     7     9    1
    14     7    10    1
    15     8    11    1
    16    10    12    1
    17    10    13    2
    18    11    14   ar
    19    11    15   ar
    20    13    17    1
    21    14    16   ar
    22    15    19   ar
    23    16    18   ar
    24    17    20   ar
    25    17    21   ar
    26    18    19   ar
    27    20    23   ar
    28    21    24   ar
    29    23    25   ar
    30    24    25   ar
