@<TRIPOS>MOLECULE
IMPHY009607
 123 130 0 0 0
SMALL
GASTEIGER

@<TRIPOS>ATOM
      1 O           6.5757    3.4063    0.0000 O.3     1  UNL1       -0.3476
      2 O           5.0244    2.5742    0.0000 O.3     1  UNL1       -0.3409
      3 O           6.0383   -0.2297    0.0000 O.3     1  UNL1       -0.3419
      4 O          13.9541    1.5511    0.0000 O.3     1  UNL1       -0.3449
      5 O           4.3063   -0.2297    0.0000 O.3     1  UNL1       -0.3431
      6 O          15.4474    0.6735    0.0000 O.3     1  UNL1       -0.3405
      7 O           6.0383   -2.2297    0.0000 O.3     1  UNL1       -0.3841
      8 O           4.3063   -3.2297    0.0000 O.3     1  UNL1       -0.3864
      9 O          12.9408   -0.1732    0.0000 O.3     1  UNL1       -0.3841
     10 O           2.5742   -2.2297    0.0000 O.3     1  UNL1       -0.3866
     11 O          13.9274   -1.9129    0.0000 O.3     1  UNL1       -0.3864
     12 O          15.9273   -1.9284    0.0000 O.3     1  UNL1       -0.3865
     13 O          17.4473    0.6581    0.0000 O.3     1  UNL1       -0.3924
     14 C           8.0656    2.5230    0.0000 C.3     1  UNL1        0.0081
     15 C           9.1072    2.5270    0.0000 C.3     1  UNL1       -0.0206
     16 C           7.5556    1.6628    0.0000 C.3     1  UNL1       -0.0222
     17 C           9.6245    1.6229    0.0000 C.3     1  UNL1       -0.0294
     18 C           6.5557    1.6744    0.0000 C.3     1  UNL1        0.0455
     19 C           6.0657    2.5461    0.0000 C.3     1  UNL1        0.1770
     20 C           7.0614    2.1686    0.0000 C.3     1  UNL1        0.0103
     21 C          10.7093    1.6020    0.0000 C.3     1  UNL1       -0.0252
     22 C           7.5756    3.3948    0.0000 C.3     1  UNL1        0.0575
     23 C           8.0519    0.7470    0.0000 C.3     1  UNL1       -0.0488
     24 C           9.6388    3.4729    0.0000 C.3     1  UNL1       -0.0465
     25 C          11.2626    2.5353    0.0000 C.3     1  UNL1       -0.0278
     26 C           9.0933    0.7270    0.0000 C.3     1  UNL1       -0.0489
     27 C           6.0383    0.7703    0.0000 C.3     1  UNL1        0.0804
     28 C          10.7238    3.4770    0.0000 C.3     1  UNL1       -0.0486
     29 C           8.6105    3.3950    0.0000 C.3     1  UNL1       -0.0587
     30 C          12.3928    2.5397    0.0000 C.3     1  UNL1       -0.0052
     31 C          11.2478    0.6084    0.0000 C.3     1  UNL1       -0.0447
     32 C          10.1993    0.7419    0.0000 C.3     1  UNL1       -0.0590
     33 C           4.9967    0.7743    0.0000 C.3     1  UNL1        0.0066
     34 C          12.9541    1.5588    0.0000 C.3     1  UNL1        0.0672
     35 C          12.3777    0.5866    0.0000 C.3     1  UNL1       -0.0255
     36 C           4.4864    1.6824    0.0000 C.3     1  UNL1        0.0829
     37 C           6.9044    0.2703    0.0000 C.3     1  UNL1       -0.0352
     38 C          13.2588    3.0397    0.0000 C.3     1  UNL1       -0.0572
     39 C          12.3928    3.5397    0.0000 C.3     1  UNL1       -0.0572
     40 C           3.4865    1.6978    0.0000 C.2     1  UNL1       -0.0567
     41 C           5.1723   -0.7297    0.0000 C.3     1  UNL1        0.1884
     42 C          14.4474    0.6812    0.0000 C.3     1  UNL1        0.1882
     43 C           5.1723   -1.7297    0.0000 C.3     1  UNL1        0.1341
     44 C           2.9999    2.5714    0.0000 C.2     1  UNL1       -0.0772
     45 C           4.3063   -2.2297    0.0000 C.3     1  UNL1        0.1140
     46 C          13.9407   -0.1809    0.0000 C.3     1  UNL1        0.1341
     47 C           3.4402   -0.7297    0.0000 C.3     1  UNL1        0.0873
     48 C           3.4402   -1.7297    0.0000 C.3     1  UNL1        0.1095
     49 C           2.0000    2.5868    0.0000 C.3     1  UNL1       -0.0440
     50 C           3.5132    3.4296    0.0000 C.3     1  UNL1       -0.0440
     51 C          14.4340   -1.0508    0.0000 C.3     1  UNL1        0.1141
     52 C          15.9407   -0.1964    0.0000 C.3     1  UNL1        0.1130
     53 C          15.4340   -1.0585    0.0000 C.3     1  UNL1        0.1119
     54 C           2.5742   -0.2297    0.0000 C.3     1  UNL1       -0.0361
     55 C          16.9406   -0.2041    0.0000 C.3     1  UNL1        0.0730
     56 H           8.1755    1.6509    0.0000 H       1  UNL1        0.0312
     57 H           9.9262    1.0813    0.0000 H       1  UNL1        0.0312
     58 H           6.8636    1.1363    0.0000 H       1  UNL1        0.0384
     59 H           6.6851    1.6758    0.0000 H       1  UNL1        0.0323
     60 H           7.4262    1.6672    0.0000 H       1  UNL1        0.0323
     61 H           8.1606    3.6001    0.0000 H       1  UNL1        0.0567
     62 H           7.4750    4.0066    0.0000 H       1  UNL1        0.0567
     63 H           7.4643    0.5493    0.0000 H       1  UNL1        0.0268
     64 H           8.1462    0.1342    0.0000 H       1  UNL1        0.0268
     65 H           9.7425    4.0841    0.0000 H       1  UNL1        0.0271
     66 H           9.0543    3.6797    0.0000 H       1  UNL1        0.0271
     67 H          11.5726    3.0723    0.0000 H       1  UNL1        0.0312
     68 H           8.9755    0.1183    0.0000 H       1  UNL1        0.0268
     69 H           9.6729    0.5067    0.0000 H       1  UNL1        0.0268
     70 H          11.3067    3.6884    0.0000 H       1  UNL1        0.0268
     71 H          10.6153    4.0875    0.0000 H       1  UNL1        0.0268
     72 H           9.1487    3.7029    0.0000 H       1  UNL1        0.0235
     73 H           8.3026    3.9331    0.0000 H       1  UNL1        0.0235
     74 H           8.0724    3.0870    0.0000 H       1  UNL1        0.0235
     75 H          10.6602    0.4106    0.0000 H       1  UNL1        0.0271
     76 H          11.3421   -0.0044    0.0000 H       1  UNL1        0.0271
     77 H           9.6660    1.0580    0.0000 H       1  UNL1        0.0235
     78 H           9.8832    0.2085    0.0000 H       1  UNL1        0.0235
     79 H          10.7327    0.4257    0.0000 H       1  UNL1        0.0235
     80 H           4.4122    0.5675    0.0000 H       1  UNL1        0.0321
     81 H           5.1004    0.1631    0.0000 H       1  UNL1        0.0321
     82 H          13.2589    1.0189    0.0000 H       1  UNL1        0.0602
     83 H          12.2599   -0.0221    0.0000 H       1  UNL1        0.0290
     84 H          12.9573    0.3664    0.0000 H       1  UNL1        0.0290
     85 H           4.1857    2.2246    0.0000 H       1  UNL1        0.0642
     86 H           6.5944   -0.2666    0.0000 H       1  UNL1        0.0257
     87 H           7.4413   -0.0397    0.0000 H       1  UNL1        0.0257
     88 H           7.2144    0.8072    0.0000 H       1  UNL1        0.0257
     89 H          13.5688    2.5028    0.0000 H       1  UNL1        0.0236
     90 H          13.7958    3.3497    0.0000 H       1  UNL1        0.0236
     91 H          12.9488    3.5766    0.0000 H       1  UNL1        0.0236
     92 H          13.0128    3.5397    0.0000 H       1  UNL1        0.0236
     93 H          12.3928    4.1597    0.0000 H       1  UNL1        0.0236
     94 H          11.7728    3.5397    0.0000 H       1  UNL1        0.0236
     95 H           3.1682    1.1657    0.0000 H       1  UNL1        0.0597
     96 H           5.1723   -0.1097    0.0000 H       1  UNL1        0.0938
     97 H          13.8274    0.6860    0.0000 H       1  UNL1        0.0937
     98 H           5.1723   -2.3497    0.0000 H       1  UNL1        0.0671
     99 H           3.7693   -2.5397    0.0000 H       1  UNL1        0.0648
    100 H          13.6266   -0.7155    0.0000 H       1  UNL1        0.0671
    101 H           3.4402   -0.1097    0.0000 H       1  UNL1        0.0621
    102 H           2.9033   -1.4197    0.0000 H       1  UNL1        0.0646
    103 H           2.0096    3.2068    0.0000 H       1  UNL1        0.0274
    104 H           1.3801    2.5964    0.0000 H       1  UNL1        0.0274
    105 H           1.9904    1.9669    0.0000 H       1  UNL1        0.0274
    106 H           4.0453    3.1114    0.0000 H       1  UNL1        0.0274
    107 H           3.8314    3.9617    0.0000 H       1  UNL1        0.0274
    108 H           2.9811    3.7479    0.0000 H       1  UNL1        0.0274
    109 H          13.8141   -1.0460    0.0000 H       1  UNL1        0.0648
    110 H           6.0383   -2.8497    0.0000 H       1  UNL1        0.2101
    111 H          16.2548    0.3382    0.0000 H       1  UNL1        0.0647
    112 H          15.1199   -1.5930    0.0000 H       1  UNL1        0.0647
    113 H           2.8842    0.3072    0.0000 H       1  UNL1        0.0255
    114 H           2.0373    0.0803    0.0000 H       1  UNL1        0.0255
    115 H           2.2642   -0.7666    0.0000 H       1  UNL1        0.0255
    116 H           3.7693   -3.5397    0.0000 H       1  UNL1        0.2100
    117 H          12.6266   -0.7078    0.0000 H       1  UNL1        0.2101
    118 H           2.0373   -1.9197    0.0000 H       1  UNL1        0.2100
    119 H          16.8283   -0.8138    0.0000 H       1  UNL1        0.0584
    120 H          17.5216   -0.4206    0.0000 H       1  UNL1        0.0584
    121 H          14.2332   -2.4522    0.0000 H       1  UNL1        0.2100
    122 H          16.5473   -1.9331    0.0000 H       1  UNL1        0.2100
    123 H          18.0673    0.6533    0.0000 H       1  UNL1        0.2095
@<TRIPOS>BOND
     1     1    19    1
     2     1    22    1
     3     2    19    1
     4     2    36    1
     5     3    27    1
     6     3    41    1
     7     4    34    1
     8     4    42    1
     9     5    41    1
    10     5    47    1
    11     6    42    1
    12     6    52    1
    13     7    43    1
    14     7   110    1
    15     8    45    1
    16     8   116    1
    17     9    46    1
    18     9   117    1
    19    10    48    1
    20    10   118    1
    21    11    51    1
    22    11   121    1
    23    12    53    1
    24    12   122    1
    25    13    55    1
    26    13   123    1
    27    14    15    1
    28    14    16    1
    29    14    20    1
    30    14    22    1
    31    15    17    1
    32    15    24    1
    33    15    29    1
    34    16    18    1
    35    16    23    1
    36    16    56    1
    37    17    21    1
    38    17    26    1
    39    17    57    1
    40    18    19    1
    41    18    27    1
    42    18    58    1
    43    19    20    1
    44    20    59    1
    45    20    60    1
    46    21    25    1
    47    21    31    1
    48    21    32    1
    49    22    61    1
    50    22    62    1
    51    23    26    1
    52    23    63    1
    53    23    64    1
    54    24    28    1
    55    24    65    1
    56    24    66    1
    57    25    28    1
    58    25    30    1
    59    25    67    1
    60    26    68    1
    61    26    69    1
    62    27    33    1
    63    27    37    1
    64    28    70    1
    65    28    71    1
    66    29    72    1
    67    29    73    1
    68    29    74    1
    69    30    34    1
    70    30    38    1
    71    30    39    1
    72    31    35    1
    73    31    75    1
    74    31    76    1
    75    32    77    1
    76    32    78    1
    77    32    79    1
    78    33    36    1
    79    33    80    1
    80    33    81    1
    81    34    35    1
    82    34    82    1
    83    35    83    1
    84    35    84    1
    85    36    40    1
    86    36    85    1
    87    37    86    1
    88    37    87    1
    89    37    88    1
    90    38    89    1
    91    38    90    1
    92    38    91    1
    93    39    92    1
    94    39    93    1
    95    39    94    1
    96    40    44    2
    97    40    95    1
    98    41    43    1
    99    41    96    1
   100    42    46    1
   101    42    97    1
   102    43    45    1
   103    43    98    1
   104    44    49    1
   105    44    50    1
   106    45    48    1
   107    45    99    1
   108    46    51    1
   109    46   100    1
   110    47    48    1
   111    47    54    1
   112    47   101    1
   113    48   102    1
   114    49   103    1
   115    49   104    1
   116    49   105    1
   117    50   106    1
   118    50   107    1
   119    50   108    1
   120    51    53    1
   121    51   109    1
   122    52    53    1
   123    52    55    1
   124    52   111    1
   125    53   112    1
   126    54   113    1
   127    54   114    1
   128    54   115    1
   129    55   119    1
   130    55   120    1
