@<TRIPOS>MOLECULE
IMPHY008207
 38 40 0 0 0
SMALL
GASTEIGER

@<TRIPOS>ATOM
      1 O           3.5836    0.3977    0.0000 O.3     1  UNL1       -0.4530
      2 O           8.0321    0.0899    0.0000 O.3     1  UNL1       -0.3909
      3 O           2.0000   -0.4070    0.0000 O.2     1  UNL1       -0.2453
      4 C           6.2619    0.0930    0.0000 C.3     1  UNL1        0.0186
      5 C           5.3958    0.5930    0.0000 C.2     1  UNL1       -0.0217
      6 C           6.2619   -0.9070    0.0000 C.3     1  UNL1       -0.0407
      7 C           4.5298    0.0930    0.0000 C.3     1  UNL1        0.1322
      8 C           4.5298   -0.9070    0.0000 C.3     1  UNL1        0.0314
      9 C           7.1719    0.5998    0.0000 C.3     1  UNL1        0.0647
     10 C           5.3958   -1.4070    0.0000 C.3     1  UNL1       -0.0414
     11 C           7.1799    1.6414    0.0000 C.3     1  UNL1       -0.0224
     12 C           5.3798    1.6345    0.0000 C.2     1  UNL1       -0.0692
     13 C           7.1279   -0.4070    0.0000 C.3     1  UNL1       -0.0533
     14 C           6.2778    2.1623    0.0000 C.3     1  UNL1       -0.0293
     15 C           3.5836   -1.2117    0.0000 C.2     1  UNL1        0.0364
     16 C           3.0000   -0.4070    0.0000 C.2     1  UNL1        0.3356
     17 C           4.5080    2.1245    0.0000 C.3     1  UNL1       -0.0434
     18 C           3.2729   -2.1623    0.0000 C.2     1  UNL1       -0.0883
     19 H           6.4739   -1.4896    0.0000 H       1  UNL1        0.0275
     20 H           6.8725   -0.7993    0.0000 H       1  UNL1        0.0275
     21 H           4.4399    0.9382    0.0000 H       1  UNL1        0.0788
     22 H           4.4399   -1.7522    0.0000 H       1  UNL1        0.0390
     23 H           7.7118    0.9047    0.0000 H       1  UNL1        0.0602
     24 H           4.9973   -1.8820    0.0000 H       1  UNL1        0.0273
     25 H           5.7944   -1.8820    0.0000 H       1  UNL1        0.0273
     26 H           7.7899    1.5306    0.0000 H       1  UNL1        0.0293
     27 H           7.3935    2.2235    0.0000 H       1  UNL1        0.0293
     28 H           6.8179   -0.9439    0.0000 H       1  UNL1        0.0239
     29 H           7.6648   -0.7170    0.0000 H       1  UNL1        0.0239
     30 H           7.4379    0.1299    0.0000 H       1  UNL1        0.0239
     31 H           6.6751    2.6382    0.0000 H       1  UNL1        0.0311
     32 H           5.8769    2.6352    0.0000 H       1  UNL1        0.0311
     33 H           4.8118    2.6649    0.0000 H       1  UNL1        0.0274
     34 H           3.9676    2.4282    0.0000 H       1  UNL1        0.0274
     35 H           4.2043    1.5840    0.0000 H       1  UNL1        0.0274
     36 H           8.5726    0.3936    0.0000 H       1  UNL1        0.2098
     37 H           2.6663   -2.2901    0.0000 H       1  UNL1        0.0540
     38 H           3.6870   -2.6237    0.0000 H       1  UNL1        0.0540
@<TRIPOS>BOND
     1     1     7    1
     2     1    16    1
     3     9     2    1
     4     2    36    1
     5     3    16    2
     6     4     5    1
     7     4     6    1
     8     4     9    1
     9     4    13    1
    10     5     7    1
    11     5    12    2
    12     6    10    1
    13     6    19    1
    14     6    20    1
    15     7     8    1
    16     7    21    1
    17     8    10    1
    18     8    15    1
    19     8    22    1
    20     9    11    1
    21     9    23    1
    22    10    24    1
    23    10    25    1
    24    11    14    1
    25    11    26    1
    26    11    27    1
    27    12    14    1
    28    12    17    1
    29    13    28    1
    30    13    29    1
    31    13    30    1
    32    14    31    1
    33    14    32    1
    34    15    16    1
    35    15    18    2
    36    17    33    1
    37    17    34    1
    38    17    35    1
    39    18    37    1
    40    18    38    1
