@<TRIPOS>MOLECULE
IMPHY001395
 29 30 0 0 0
SMALL
GASTEIGER

@<TRIPOS>ATOM
      1 O           8.6793   -0.0547    0.0000 O.2     1  UNL1       -0.4592
      2 O           6.8671   -1.2500    0.0000 O.3     1  UNL1       -0.4914
      3 O           2.5369    1.2500    0.0000 O.3     1  UNL1       -0.3950
      4 C           5.1350    1.7500    0.0000 C.3     1  UNL1       -0.0255
      5 C           6.0010    1.2500    0.0000 C.ar    1  UNL1       -0.0430
      6 C           4.2690    1.2500    0.0000 C.3     1  UNL1       -0.0257
      7 C           7.7331    1.2500    0.0000 C.ar    1  UNL1        0.0240
      8 C           6.8671    1.7500    0.0000 C.ar    1  UNL1       -0.0476
      9 C           7.7331    0.2500    0.0000 C.ar    1  UNL1        0.1762
     10 C           6.0010    0.2500    0.0000 C.ar    1  UNL1       -0.0131
     11 C           6.8671   -0.2500    0.0000 C.ar    1  UNL1        0.1629
     12 C           3.4030    1.7500    0.0000 C.3     1  UNL1        0.0445
     13 C           8.6793    1.5547    0.0000 C.ar    1  UNL1       -0.0160
     14 C           9.2629    0.7500    0.0000 C.ar    1  UNL1        0.0933
     15 C           6.0010   -1.7500    0.0000 C.3     1  UNL1        0.0790
     16 H           5.5335    2.2250    0.0000 H       1  UNL1        0.0314
     17 H           4.7365    2.2250    0.0000 H       1  UNL1        0.0314
     18 H           3.8705    0.7751    0.0000 H       1  UNL1        0.0290
     19 H           4.6675    0.7751    0.0000 H       1  UNL1        0.0290
     20 H           6.8671    2.3700    0.0000 H       1  UNL1        0.0627
     21 H           5.4641   -0.0600    0.0000 H       1  UNL1        0.0658
     22 H           3.8015    2.2250    0.0000 H       1  UNL1        0.0557
     23 H           3.0044    2.2250    0.0000 H       1  UNL1        0.0557
     24 H           8.8719    2.1440    0.0000 H       1  UNL1        0.0655
     25 H           9.8829    0.7500    0.0000 H       1  UNL1        0.1030
     26 H           2.0000    1.5600    0.0000 H       1  UNL1        0.2094
     27 H           5.6910   -1.2131    0.0000 H       1  UNL1        0.0660
     28 H           5.4641   -2.0600    0.0000 H       1  UNL1        0.0660
     29 H           6.3110   -2.2869    0.0000 H       1  UNL1        0.0660
@<TRIPOS>BOND
     1     1     9   ar
     2     1    14   ar
     3     2    11    1
     4     2    15    1
     5     3    12    1
     6     3    26    1
     7     4     5    1
     8     4     6    1
     9     4    16    1
    10     4    17    1
    11     5     8   ar
    12     5    10   ar
    13     6    12    1
    14     6    18    1
    15     6    19    1
    16     7     8   ar
    17     7     9   ar
    18     7    13   ar
    19     8    20    1
    20     9    11   ar
    21    10    11   ar
    22    10    21    1
    23    12    22    1
    24    12    23    1
    25    13    14   ar
    26    13    24    1
    27    14    25    1
    28    15    27    1
    29    15    28    1
    30    15    29    1
