@<TRIPOS>MOLECULE
IMPHY016627
 98 97 0 0 0
SMALL
GASTEIGER

@<TRIPOS>ATOM
      1 C          10.6603    3.5000    0.0000 C.3     1  UNL1       -0.0410
      2 C          11.5263    4.0000    0.0000 C.3     1  UNL1       -0.0502
      3 C           9.7942    4.0000    0.0000 C.3     1  UNL1       -0.0502
      4 C          10.6603    2.5000    0.0000 C.3     1  UNL1       -0.0502
      5 C          12.3923    3.5000    0.0000 C.3     1  UNL1       -0.0528
      6 C           8.9282    3.5000    0.0000 C.3     1  UNL1       -0.0528
      7 C           9.7942    2.0000    0.0000 C.3     1  UNL1       -0.0528
      8 C          13.2583    4.0000    0.0000 C.3     1  UNL1       -0.0530
      9 C           8.0622    4.0000    0.0000 C.3     1  UNL1       -0.0530
     10 C           9.7942    1.0000    0.0000 C.3     1  UNL1       -0.0530
     11 C          14.1244    3.5000    0.0000 C.3     1  UNL1       -0.0531
     12 C           7.1962    3.5000    0.0000 C.3     1  UNL1       -0.0531
     13 C           8.9282    0.5000    0.0000 C.3     1  UNL1       -0.0531
     14 C          14.9904    4.0000    0.0000 C.3     1  UNL1       -0.0531
     15 C           6.3301    4.0000    0.0000 C.3     1  UNL1       -0.0531
     16 C           8.9282   -0.5000    0.0000 C.3     1  UNL1       -0.0531
     17 C          15.8564    3.5000    0.0000 C.3     1  UNL1       -0.0531
     18 C           5.4641    3.5000    0.0000 C.3     1  UNL1       -0.0531
     19 C           8.0622   -1.0000    0.0000 C.3     1  UNL1       -0.0531
     20 C          16.7224    4.0000    0.0000 C.3     1  UNL1       -0.0531
     21 C           4.5981    4.0000    0.0000 C.3     1  UNL1       -0.0531
     22 C           8.0622   -2.0000    0.0000 C.3     1  UNL1       -0.0531
     23 C          17.5885    3.5000    0.0000 C.3     1  UNL1       -0.0531
     24 C           3.7320    3.5000    0.0000 C.3     1  UNL1       -0.0533
     25 C           7.1962   -2.5000    0.0000 C.3     1  UNL1       -0.0533
     26 C          18.4545    4.0000    0.0000 C.3     1  UNL1       -0.0533
     27 C           2.8660    4.0000    0.0000 C.3     1  UNL1       -0.0559
     28 C           7.1962   -3.5000    0.0000 C.3     1  UNL1       -0.0559
     29 C          19.3205    3.5000    0.0000 C.3     1  UNL1       -0.0559
     30 C           2.0000    3.5000    0.0000 C.3     1  UNL1       -0.0653
     31 C           6.3301   -4.0000    0.0000 C.3     1  UNL1       -0.0653
     32 C          20.1865    4.0000    0.0000 C.3     1  UNL1       -0.0653
     33 H          11.1972    3.1900    0.0000 H       1  UNL1        0.0301
     34 H          11.9248    4.4750    0.0000 H       1  UNL1        0.0268
     35 H          11.1278    4.4750    0.0000 H       1  UNL1        0.0268
     36 H          10.1928    4.4750    0.0000 H       1  UNL1        0.0268
     37 H           9.3957    4.4750    0.0000 H       1  UNL1        0.0268
     38 H          10.8723    1.9174    0.0000 H       1  UNL1        0.0268
     39 H          11.2708    2.6077    0.0000 H       1  UNL1        0.0268
     40 H          11.9938    3.0250    0.0000 H       1  UNL1        0.0265
     41 H          12.7908    3.0250    0.0000 H       1  UNL1        0.0265
     42 H           8.5297    3.0250    0.0000 H       1  UNL1        0.0265
     43 H           9.3267    3.0250    0.0000 H       1  UNL1        0.0265
     44 H           9.5822    2.5826    0.0000 H       1  UNL1        0.0265
     45 H           9.1836    1.8923    0.0000 H       1  UNL1        0.0265
     46 H          13.6569    4.4750    0.0000 H       1  UNL1        0.0265
     47 H          12.8598    4.4750    0.0000 H       1  UNL1        0.0265
     48 H           8.4607    4.4750    0.0000 H       1  UNL1        0.0265
     49 H           7.6636    4.4750    0.0000 H       1  UNL1        0.0265
     50 H          10.0063    0.4174    0.0000 H       1  UNL1        0.0265
     51 H          10.4048    1.1077    0.0000 H       1  UNL1        0.0265
     52 H          13.7258    3.0250    0.0000 H       1  UNL1        0.0265
     53 H          14.5229    3.0250    0.0000 H       1  UNL1        0.0265
     54 H           6.7976    3.0250    0.0000 H       1  UNL1        0.0265
     55 H           7.5947    3.0250    0.0000 H       1  UNL1        0.0265
     56 H           8.7162    1.0826    0.0000 H       1  UNL1        0.0265
     57 H           8.3176    0.3923    0.0000 H       1  UNL1        0.0265
     58 H          15.3889    4.4750    0.0000 H       1  UNL1        0.0265
     59 H          14.5919    4.4750    0.0000 H       1  UNL1        0.0265
     60 H           6.7287    4.4750    0.0000 H       1  UNL1        0.0265
     61 H           5.9316    4.4750    0.0000 H       1  UNL1        0.0265
     62 H           9.1403   -1.0826    0.0000 H       1  UNL1        0.0265
     63 H           9.5388   -0.3923    0.0000 H       1  UNL1        0.0265
     64 H          15.4579    3.0250    0.0000 H       1  UNL1        0.0265
     65 H          16.2549    3.0250    0.0000 H       1  UNL1        0.0265
     66 H           5.0656    3.0250    0.0000 H       1  UNL1        0.0265
     67 H           5.8626    3.0250    0.0000 H       1  UNL1        0.0265
     68 H           7.8501   -0.4174    0.0000 H       1  UNL1        0.0265
     69 H           7.4516   -1.1077    0.0000 H       1  UNL1        0.0265
     70 H          17.1210    4.4750    0.0000 H       1  UNL1        0.0265
     71 H          16.3239    4.4750    0.0000 H       1  UNL1        0.0265
     72 H           4.9966    4.4750    0.0000 H       1  UNL1        0.0265
     73 H           4.1996    4.4750    0.0000 H       1  UNL1        0.0265
     74 H           8.2742   -2.5826    0.0000 H       1  UNL1        0.0265
     75 H           8.6728   -1.8923    0.0000 H       1  UNL1        0.0265
     76 H          17.1899    3.0250    0.0000 H       1  UNL1        0.0265
     77 H          17.9870    3.0250    0.0000 H       1  UNL1        0.0265
     78 H           3.3335    3.0250    0.0000 H       1  UNL1        0.0265
     79 H           4.1306    3.0250    0.0000 H       1  UNL1        0.0265
     80 H           6.9841   -1.9174    0.0000 H       1  UNL1        0.0265
     81 H           6.5856   -2.6077    0.0000 H       1  UNL1        0.0265
     82 H          18.8530    4.4750    0.0000 H       1  UNL1        0.0265
     83 H          18.0560    4.4750    0.0000 H       1  UNL1        0.0265
     84 H           3.2646    4.4750    0.0000 H       1  UNL1        0.0263
     85 H           2.4675    4.4750    0.0000 H       1  UNL1        0.0263
     86 H           7.4082   -4.0826    0.0000 H       1  UNL1        0.0263
     87 H           7.8067   -3.3923    0.0000 H       1  UNL1        0.0263
     88 H          18.9220    3.0250    0.0000 H       1  UNL1        0.0263
     89 H          19.7190    3.0250    0.0000 H       1  UNL1        0.0263
     90 H           1.6900    4.0369    0.0000 H       1  UNL1        0.0230
     91 H           1.4631    3.1900    0.0000 H       1  UNL1        0.0230
     92 H           2.3100    2.9631    0.0000 H       1  UNL1        0.0230
     93 H           6.0201   -3.4631    0.0000 H       1  UNL1        0.0230
     94 H           5.7932   -4.3100    0.0000 H       1  UNL1        0.0230
     95 H           6.6401   -4.5369    0.0000 H       1  UNL1        0.0230
     96 H          20.4965    3.4631    0.0000 H       1  UNL1        0.0230
     97 H          20.7235    4.3100    0.0000 H       1  UNL1        0.0230
     98 H          19.8765    4.5369    0.0000 H       1  UNL1        0.0230
@<TRIPOS>BOND
     1     1     2    1
     2     1     3    1
     3     1     4    1
     4     1    33    1
     5     2     5    1
     6     2    34    1
     7     2    35    1
     8     3     6    1
     9     3    36    1
    10     3    37    1
    11     4     7    1
    12     4    38    1
    13     4    39    1
    14     5     8    1
    15     5    40    1
    16     5    41    1
    17     6     9    1
    18     6    42    1
    19     6    43    1
    20     7    10    1
    21     7    44    1
    22     7    45    1
    23     8    11    1
    24     8    46    1
    25     8    47    1
    26     9    12    1
    27     9    48    1
    28     9    49    1
    29    10    13    1
    30    10    50    1
    31    10    51    1
    32    11    14    1
    33    11    52    1
    34    11    53    1
    35    12    15    1
    36    12    54    1
    37    12    55    1
    38    13    16    1
    39    13    56    1
    40    13    57    1
    41    14    17    1
    42    14    58    1
    43    14    59    1
    44    15    18    1
    45    15    60    1
    46    15    61    1
    47    16    19    1
    48    16    62    1
    49    16    63    1
    50    17    20    1
    51    17    64    1
    52    17    65    1
    53    18    21    1
    54    18    66    1
    55    18    67    1
    56    19    22    1
    57    19    68    1
    58    19    69    1
    59    20    23    1
    60    20    70    1
    61    20    71    1
    62    21    24    1
    63    21    72    1
    64    21    73    1
    65    22    25    1
    66    22    74    1
    67    22    75    1
    68    23    26    1
    69    23    76    1
    70    23    77    1
    71    24    27    1
    72    24    78    1
    73    24    79    1
    74    25    28    1
    75    25    80    1
    76    25    81    1
    77    26    29    1
    78    26    82    1
    79    26    83    1
    80    27    30    1
    81    27    84    1
    82    27    85    1
    83    28    31    1
    84    28    86    1
    85    28    87    1
    86    29    32    1
    87    29    88    1
    88    29    89    1
    89    30    90    1
    90    30    91    1
    91    30    92    1
    92    31    93    1
    93    31    94    1
    94    31    95    1
    95    32    96    1
    96    32    97    1
    97    32    98    1
