@<TRIPOS>MOLECULE
IMPHY002792
 56 60 0 0 0
SMALL
GASTEIGER

@<TRIPOS>ATOM
      1 O          11.8704   -1.7516    0.0000 O.3     1  UNL1       -0.4852
      2 O          14.4540   -0.9469    0.0000 O.3     1  UNL1       -0.3855
      3 O           8.2982   -1.9815    0.0000 O.2     1  UNL1       -0.4618
      4 O          10.0582    1.0531    0.0000 O.3     1  UNL1       -0.5055
      5 O           3.9080    1.6220    0.0000 O.3     1  UNL1       -0.4815
      6 O           8.3098    1.0877    0.0000 O.2     1  UNL1       -0.2863
      7 O           5.6563   -1.4194    0.0000 O.3     1  UNL1       -0.5054
      8 C          12.4540   -0.9469    0.0000 C.3     1  UNL1        0.1323
      9 C          13.4540   -0.9469    0.0000 C.3     1  UNL1        0.0974
     10 C          11.8704   -0.1422    0.0000 C.3     1  UNL1        0.0192
     11 C          10.9242   -0.4469    0.0000 C.ar    1  UNL1        0.0401
     12 C          10.9242   -1.4469    0.0000 C.ar    1  UNL1        0.1313
     13 C          13.4540   -1.9469    0.0000 C.3     1  UNL1       -0.0328
     14 C          13.4540    0.0531    0.0000 C.3     1  UNL1       -0.0328
     15 C          10.0582    0.0531    0.0000 C.ar    1  UNL1        0.1380
     16 C           9.1922   -0.4469    0.0000 C.ar    1  UNL1        0.1063
     17 C          10.0582   -1.9469    0.0000 C.ar    1  UNL1        0.0236
     18 C           9.1922   -1.4469    0.0000 C.ar    1  UNL1        0.1454
     19 C           8.2982    0.0878    0.0000 C.ar    1  UNL1        0.2038
     20 C           7.3922   -0.4261    0.0000 C.ar    1  UNL1        0.0679
     21 C           3.0000    1.1117    0.0000 C.3     1  UNL1        0.1235
     22 C           6.5281    0.0773    0.0000 C.ar    1  UNL1        0.0310
     23 C           4.7960    0.0839    0.0000 C.ar    1  UNL1        0.0585
     24 C           7.3922   -1.4677    0.0000 C.ar    1  UNL1        0.1040
     25 C           4.7999    1.0839    0.0000 C.ar    1  UNL1        0.1324
     26 C           5.6601   -0.4194    0.0000 C.ar    1  UNL1        0.1353
     27 C           2.9960    0.0701    0.0000 C.2     1  UNL1       -0.0408
     28 C           3.9000   -0.4473    0.0000 C.2     1  UNL1       -0.0478
     29 C           6.5319    1.0773    0.0000 C.ar    1  UNL1       -0.0468
     30 C           2.0000    1.1194    0.0000 C.3     1  UNL1       -0.0215
     31 C           2.5067    1.9815    0.0000 C.3     1  UNL1       -0.0215
     32 C           5.6678    1.5806    0.0000 C.ar    1  UNL1       -0.0185
     33 H          12.7358   -1.4992    0.0000 H       1  UNL1        0.0765
     34 H          12.4078    0.1671    0.0000 H       1  UNL1        0.0352
     35 H          11.6194    0.4248    0.0000 H       1  UNL1        0.0352
     36 H          14.0740    0.0531    0.0000 H       1  UNL1        0.0258
     37 H          13.4540    0.6731    0.0000 H       1  UNL1        0.0258
     38 H          12.8340   -1.9469    0.0000 H       1  UNL1        0.0258
     39 H          13.4540   -2.5669    0.0000 H       1  UNL1        0.0258
     40 H          14.0740   -1.9469    0.0000 H       1  UNL1        0.0258
     41 H          12.8340    0.0531    0.0000 H       1  UNL1        0.0258
     42 H          10.0582   -2.5669    0.0000 H       1  UNL1        0.0691
     43 H          14.7640   -1.4838    0.0000 H       1  UNL1        0.2103
     44 H           6.8564   -1.7798    0.0000 H       1  UNL1        0.1037
     45 H          10.5951    1.3631    0.0000 H       1  UNL1        0.2922
     46 H           2.4590   -0.2399    0.0000 H       1  UNL1        0.0611
     47 H           3.9048   -1.0672    0.0000 H       1  UNL1        0.0624
     48 H           7.0700    1.3852    0.0000 H       1  UNL1        0.0626
     49 H           2.0048    1.7394    0.0000 H       1  UNL1        0.0271
     50 H           3.0460    2.2874    0.0000 H       1  UNL1        0.0271
     51 H           2.2008    2.5208    0.0000 H       1  UNL1        0.0271
     52 H           1.9674    1.6757    0.0000 H       1  UNL1        0.0271
     53 H           1.3800    1.1242    0.0000 H       1  UNL1        0.0271
     54 H           1.9952    0.4994    0.0000 H       1  UNL1        0.0271
     55 H           5.6702    2.2006    0.0000 H       1  UNL1        0.0654
     56 H           5.1181   -1.7273    0.0000 H       1  UNL1        0.2922
@<TRIPOS>BOND
     1     1     8    1
     2     1    12    1
     3     2     9    1
     4     2    43    1
     5     3    18   ar
     6     3    24   ar
     7     4    15    1
     8     4    45    1
     9     5    21    1
    10     5    25    1
    11     6    19    2
    12     7    26    1
    13     7    56    1
    14     8     9    1
    15     8    10    1
    16     8    33    1
    17     9    13    1
    18     9    14    1
    19    10    11    1
    20    10    34    1
    21    10    35    1
    22    11    12   ar
    23    11    15   ar
    24    12    17   ar
    25    13    38    1
    26    13    39    1
    27    13    40    1
    28    14    36    1
    29    14    37    1
    30    14    41    1
    31    15    16   ar
    32    16    18   ar
    33    16    19   ar
    34    17    18   ar
    35    17    42    1
    36    19    20   ar
    37    20    22    1
    38    20    24   ar
    39    21    27    1
    40    21    30    1
    41    21    31    1
    42    22    26   ar
    43    22    29   ar
    44    23    25   ar
    45    23    26   ar
    46    23    28    1
    47    24    44    1
    48    25    32   ar
    49    27    28    2
    50    27    46    1
    51    28    47    1
    52    29    32   ar
    53    29    48    1
    54    30    49    1
    55    30    53    1
    56    30    54    1
    57    31    50    1
    58    31    51    1
    59    31    52    1
    60    32    55    1
