@<TRIPOS>MOLECULE
IMPHY015486
 56 60 0 0 0
SMALL
GASTEIGER

@<TRIPOS>ATOM
      1 O           4.8840   -2.0000    0.0000 O.3     1  UNL1       -0.4492
      2 O           8.4082    0.6537    0.0000 O.3     1  UNL1       -0.4226
      3 O           5.0740   -3.7719    0.0000 O.2     1  UNL1       -0.2449
      4 O           8.5689   -0.8189    0.0000 O.2     1  UNL1       -0.2449
      5 C           5.5118   -1.2216    0.0000 C.3     1  UNL1        0.1461
      6 C           5.1463    0.1537    0.0000 C.3     1  UNL1       -0.0229
      7 C           6.0123   -0.3463    0.0000 C.3     1  UNL1        0.0387
      8 C           4.6386   -0.7174    0.0000 C.3     1  UNL1        0.0071
      9 C           5.1463    1.1537    0.0000 C.3     1  UNL1       -0.0450
     10 C           6.4461   -1.5780    0.0000 C.2     1  UNL1       -0.0115
     11 C           6.8783    0.1537    0.0000 C.2     1  UNL1        0.0511
     12 C           3.6721   -0.9743    0.0000 C.3     1  UNL1       -0.0462
     13 C           6.0123    1.6537    0.0000 C.3     1  UNL1       -0.0234
     14 C           6.8783    1.1537    0.0000 C.2     1  UNL1        0.0051
     15 C           6.3958   -2.5768    0.0000 C.2     1  UNL1        0.0617
     16 C           7.3658   -1.0890    0.0000 C.3     1  UNL1       -0.0235
     17 C           2.9665   -0.2657    0.0000 C.3     1  UNL1       -0.0555
     18 C           5.4304   -2.8376    0.0000 C.2     1  UNL1        0.3401
     19 C           7.8246   -0.1511    0.0000 C.2     1  UNL1        0.3412
     20 C           7.8246    1.4584    0.0000 C.2     1  UNL1        0.1317
     21 C           8.2449   -1.6478    0.0000 C.3     1  UNL1       -0.0306
     22 C           7.2617   -3.1557    0.0000 C.2     1  UNL1       -0.0516
     23 C           8.1925   -2.6881    0.0000 C.2     1  UNL1       -0.0829
     24 C           2.0000   -0.5226    0.0000 C.3     1  UNL1       -0.0653
     25 C           8.1352    2.4089    0.0000 C.2     1  UNL1       -0.0412
     26 C           9.1137    2.6152    0.0000 C.3     1  UNL1       -0.0313
     27 C           9.4244    3.5657    0.0000 C.3     1  UNL1       -0.0523
     28 C          10.4029    3.7719    0.0000 C.3     1  UNL1       -0.0650
     29 H           4.5478    0.3154    0.0000 H       1  UNL1        0.0312
     30 H           6.4516   -0.7838    0.0000 H       1  UNL1        0.0396
     31 H           4.5570   -1.3321    0.0000 H       1  UNL1        0.0346
     32 H           4.9342    1.7363    0.0000 H       1  UNL1        0.0271
     33 H           4.5357    1.0460    0.0000 H       1  UNL1        0.0271
     34 H           3.1635   -1.3288    0.0000 H       1  UNL1        0.0269
     35 H           3.9330   -1.5367    0.0000 H       1  UNL1        0.0269
     36 H           6.4108    2.1286    0.0000 H       1  UNL1        0.0315
     37 H           5.6138    2.1286    0.0000 H       1  UNL1        0.0315
     38 H           7.7830   -0.6304    0.0000 H       1  UNL1        0.0315
     39 H           6.9853   -0.5995    0.0000 H       1  UNL1        0.0315
     40 H           3.4751    0.0889    0.0000 H       1  UNL1        0.0263
     41 H           2.7056    0.2967    0.0000 H       1  UNL1        0.0263
     42 H           8.8496   -1.7844    0.0000 H       1  UNL1        0.0310
     43 H           8.4830   -1.0753    0.0000 H       1  UNL1        0.0310
     44 H           7.2234   -3.7745    0.0000 H       1  UNL1        0.0623
     45 H           8.7118   -3.0267    0.0000 H       1  UNL1        0.0572
     46 H           1.8408    0.0767    0.0000 H       1  UNL1        0.0230
     47 H           1.4008   -0.6818    0.0000 H       1  UNL1        0.0230
     48 H           2.1592   -1.1218    0.0000 H       1  UNL1        0.0230
     49 H           7.7212    2.8704    0.0000 H       1  UNL1        0.0608
     50 H           9.1343    1.9955    0.0000 H       1  UNL1        0.0308
     51 H           9.7276    2.5278    0.0000 H       1  UNL1        0.0308
     52 H           9.4038    4.1853    0.0000 H       1  UNL1        0.0266
     53 H           8.8106    3.6530    0.0000 H       1  UNL1        0.0266
     54 H          10.5308    3.1652    0.0000 H       1  UNL1        0.0230
     55 H          11.0096    3.8998    0.0000 H       1  UNL1        0.0230
     56 H          10.2750    4.3786    0.0000 H       1  UNL1        0.0230
@<TRIPOS>BOND
     1     1     5    1
     2     1    18    1
     3     2    19    1
     4     2    20    1
     5     3    18    2
     6     4    19    2
     7     5     7    1
     8     5     8    1
     9     5    10    1
    10     6     7    1
    11     6     8    1
    12     6     9    1
    13     6    29    1
    14     7    11    1
    15     7    30    1
    16     8    12    1
    17     8    31    1
    18     9    13    1
    19     9    32    1
    20     9    33    1
    21    10    15    2
    22    10    16    1
    23    11    14    2
    24    11    19    1
    25    12    17    1
    26    12    34    1
    27    12    35    1
    28    13    14    1
    29    13    36    1
    30    13    37    1
    31    14    20    1
    32    15    18    1
    33    15    22    1
    34    16    21    1
    35    16    38    1
    36    16    39    1
    37    17    24    1
    38    17    40    1
    39    17    41    1
    40    20    25    2
    41    21    23    1
    42    21    42    1
    43    21    43    1
    44    22    23    2
    45    22    44    1
    46    23    45    1
    47    24    46    1
    48    24    47    1
    49    24    48    1
    50    25    26    1
    51    25    49    1
    52    26    27    1
    53    26    50    1
    54    26    51    1
    55    27    28    1
    56    27    52    1
    57    27    53    1
    58    28    54    1
    59    28    55    1
    60    28    56    1
