@<TRIPOS>MOLECULE
IMPHY016186
 16 16 0 0 0
SMALL
GASTEIGER

@<TRIPOS>ATOM
      1 O           3.7320    2.5000    0.0000 O.2     1  UNL1       -0.2957
      2 O           2.0000   -2.5000    0.0000 O.2     1  UNL1       -0.2957
      3 C           2.8660    1.0000    0.0000 C.ar    1  UNL1        0.0142
      4 C           2.8660   -1.0000    0.0000 C.ar    1  UNL1        0.0142
      5 C           2.0000    0.5000    0.0000 C.ar    1  UNL1       -0.0509
      6 C           2.0000   -0.5000    0.0000 C.ar    1  UNL1       -0.0509
      7 C           3.7320    0.5000    0.0000 C.ar    1  UNL1       -0.0509
      8 C           3.7320   -0.5000    0.0000 C.ar    1  UNL1       -0.0509
      9 C           2.8660    2.0000    0.0000 C.2     1  UNL1        0.1502
     10 C           2.8660   -2.0000    0.0000 C.2     1  UNL1        0.1502
     11 H           1.4631    0.8100    0.0000 H       1  UNL1        0.0625
     12 H           1.4631   -0.8100    0.0000 H       1  UNL1        0.0625
     13 H           4.2690    0.8100    0.0000 H       1  UNL1        0.0625
     14 H           4.2690   -0.8100    0.0000 H       1  UNL1        0.0625
     15 H           2.3291    2.3100    0.0000 H       1  UNL1        0.1081
     16 H           3.4030   -2.3100    0.0000 H       1  UNL1        0.1081
@<TRIPOS>BOND
     1     1     9    2
     2     2    10    2
     3     3     5   ar
     4     3     7   ar
     5     3     9    1
     6     4     6   ar
     7     4     8   ar
     8     4    10    1
     9     5     6   ar
    10     5    11    1
    11     6    12    1
    12     7     8   ar
    13     7    13    1
    14     8    14    1
    15     9    15    1
    16    10    16    1
