@<TRIPOS>MOLECULE
IMPHY006667
 38 41 0 0 0
SMALL
GASTEIGER

@<TRIPOS>ATOM
      1 O           2.6233    1.1491    0.0000 O.3     1  UNL1       -0.3609
      2 O           3.3404   -0.0532    0.0000 O.3     1  UNL1       -0.4512
      3 O           2.0000   -1.4413    0.0000 O.2     1  UNL1       -0.2453
      4 C           4.3559    0.1491    0.0000 C.3     1  UNL1        0.1523
      5 C           3.4899    0.6491    0.0000 C.3     1  UNL1        0.1284
      6 C           3.4899    1.6491    0.0000 C.3     1  UNL1        0.0972
      7 C           5.2219    0.6491    0.0000 C.3     1  UNL1        0.0049
      8 C           4.3398   -0.8924    0.0000 C.3     1  UNL1        0.0331
      9 C           4.3559    2.1491    0.0000 C.3     1  UNL1       -0.0210
     10 C           5.2219    1.6491    0.0000 C.3     1  UNL1       -0.0435
     11 C           6.1319    0.1423    0.0000 C.3     1  UNL1       -0.0373
     12 C           5.2379   -1.4201    0.0000 C.3     1  UNL1       -0.0420
     13 C           6.1399   -0.8993    0.0000 C.3     1  UNL1       -0.0494
     14 C           3.4899    2.6491    0.0000 C.3     1  UNL1       -0.0332
     15 C           3.6332   -1.6493    0.0000 C.2     1  UNL1        0.0365
     16 C           2.9557   -1.1470    0.0000 C.2     1  UNL1        0.3356
     17 C           6.9921    0.6523    0.0000 C.3     1  UNL1       -0.0620
     18 C           3.6161   -2.6491    0.0000 C.2     1  UNL1       -0.0883
     19 H           3.0650   -0.0870    0.0000 H       1  UNL1        0.0665
     20 H           5.9547    1.0798    0.0000 H       1  UNL1        0.0343
     21 H           4.4620   -1.7336    0.0000 H       1  UNL1        0.0391
     22 H           4.7544    2.6241    0.0000 H       1  UNL1        0.0294
     23 H           3.9574    2.6241    0.0000 H       1  UNL1        0.0294
     24 H           5.8325    1.5415    0.0000 H       1  UNL1        0.0270
     25 H           5.4340    2.2317    0.0000 H       1  UNL1        0.0270
     26 H           6.6718   -0.1625    0.0000 H       1  UNL1        0.0302
     27 H           4.8369   -1.8930    0.0000 H       1  UNL1        0.0272
     28 H           5.6352   -1.8961    0.0000 H       1  UNL1        0.0272
     29 H           6.3535   -1.4814    0.0000 H       1  UNL1        0.0268
     30 H           6.7500   -0.7885    0.0000 H       1  UNL1        0.0268
     31 H           4.1099    2.6491    0.0000 H       1  UNL1        0.0258
     32 H           3.4899    3.2691    0.0000 H       1  UNL1        0.0258
     33 H           2.8699    2.6491    0.0000 H       1  UNL1        0.0258
     34 H           7.3083    0.1189    0.0000 H       1  UNL1        0.0233
     35 H           7.5254    0.9684    0.0000 H       1  UNL1        0.0233
     36 H           6.6759    1.1856    0.0000 H       1  UNL1        0.0233
     37 H           3.0739   -2.9499    0.0000 H       1  UNL1        0.0540
     38 H           4.1476   -2.9683    0.0000 H       1  UNL1        0.0540
@<TRIPOS>BOND
     1     1     5    1
     2     1     6    1
     3     4     2    1
     4     2    16    1
     5     3    16    2
     6     4     5    1
     7     4     7    1
     8     4     8    1
     9     5     6    1
    10     5    19    1
    11     6     9    1
    12     6    14    1
    13     7    10    1
    14     7    11    1
    15     7    20    1
    16     8    12    1
    17     8    15    1
    18     8    21    1
    19     9    10    1
    20     9    22    1
    21     9    23    1
    22    10    24    1
    23    10    25    1
    24    11    13    1
    25    11    17    1
    26    11    26    1
    27    12    13    1
    28    12    27    1
    29    12    28    1
    30    13    29    1
    31    13    30    1
    32    14    31    1
    33    14    32    1
    34    14    33    1
    35    15    16    1
    36    15    18    2
    37    17    34    1
    38    17    35    1
    39    17    36    1
    40    18    37    1
    41    18    38    1
