@<TRIPOS>MOLECULE
IMPHY008328
 58 61 0 0 0
SMALL
GASTEIGER

@<TRIPOS>ATOM
      1 O           8.1223   -2.5159    0.0000 O.3     1  UNL1       -0.4606
      2 O           9.1608   -0.3499    0.0000 O.3     1  UNL1       -0.3870
      3 O           5.5103    1.0125    0.0000 O.3     1  UNL1       -0.3889
      4 O           7.2762    2.0503    0.0000 O.3     1  UNL1       -0.3768
      5 O           4.6497    0.5156    0.0000 O.2     1  UNL1       -0.2882
      6 O           9.8438   -2.5487    0.0000 O.2     1  UNL1       -0.2507
      7 O           2.8680   -0.4948    0.0000 O.2     1  UNL1       -0.4919
      8 C           7.2641   -1.0190    0.0000 C.3     1  UNL1        0.0406
      9 C           6.3981   -0.5190    0.0000 C.3     1  UNL1        0.0117
     10 C           8.1741   -0.5121    0.0000 C.3     1  UNL1        0.0902
     11 C           5.5320   -1.0190    0.0000 C.3     1  UNL1        0.0430
     12 C           7.2641   -2.0190    0.0000 C.3     1  UNL1        0.1117
     13 C           5.5320   -2.0190    0.0000 C.3     1  UNL1       -0.0212
     14 C           6.3820    0.5225    0.0000 C.3     1  UNL1        0.0861
     15 C           8.1821    0.5295    0.0000 C.3     1  UNL1        0.0149
     16 C           6.3981   -2.5190    0.0000 C.3     1  UNL1       -0.0110
     17 C           7.2800    1.0503    0.0000 C.3     1  UNL1        0.0896
     18 C           7.2641   -0.0190    0.0000 C.3     1  UNL1       -0.0531
     19 C           9.0134   -1.0404    0.0000 C.3     1  UNL1        0.0747
     20 C           5.5320   -0.0190    0.0000 C.3     1  UNL1       -0.0518
     21 C           4.6381   -2.5536    0.0000 C.3     1  UNL1       -0.0271
     22 C           4.6381   -0.4843    0.0000 C.2     1  UNL1        0.2034
     23 C           9.0501    1.0261    0.0000 C.3     1  UNL1       -0.0573
     24 C           8.9878   -2.0317    0.0000 C.2     1  UNL1        0.3102
     25 C           3.7320   -0.9981    0.0000 C.2     1  UNL1        0.1590
     26 C           3.7320   -2.0398    0.0000 C.2     1  UNL1       -0.0385
     27 C           8.1403    2.5536    0.0000 C.3     1  UNL1        0.0369
     28 C           2.0000   -0.9915    0.0000 C.3     1  UNL1        0.0789
     29 H           5.6587   -0.0997    0.0000 H       1  UNL1        0.0343
     30 H           7.2636   -2.8690    0.0000 H       1  UNL1        0.0740
     31 H           5.5386   -2.8689    0.0000 H       1  UNL1        0.0314
     32 H           5.8493    0.2053    0.0000 H       1  UNL1        0.0622
     33 H           8.7173    0.2164    0.0000 H       1  UNL1        0.0352
     34 H           5.9995   -2.9939    0.0000 H       1  UNL1        0.0304
     35 H           6.7966   -2.9939    0.0000 H       1  UNL1        0.0304
     36 H           6.7413    1.3572    0.0000 H       1  UNL1        0.0625
     37 H           7.8841   -0.0190    0.0000 H       1  UNL1        0.0237
     38 H           7.2641    0.6010    0.0000 H       1  UNL1        0.0237
     39 H           6.6441   -0.0190    0.0000 H       1  UNL1        0.0237
     40 H           9.6205   -1.1662    0.0000 H       1  UNL1        0.0406
     41 H           9.2452   -0.4653    0.0000 H       1  UNL1        0.0406
     42 H           6.1520   -0.0190    0.0000 H       1  UNL1        0.0239
     43 H           5.5320    0.6010    0.0000 H       1  UNL1        0.0239
     44 H           4.9120   -0.0190    0.0000 H       1  UNL1        0.0239
     45 H           4.2445   -3.0326    0.0000 H       1  UNL1        0.0312
     46 H           5.0427   -3.0234    0.0000 H       1  UNL1        0.0312
     47 H           9.3580    0.4880    0.0000 H       1  UNL1        0.0234
     48 H           9.5882    1.3341    0.0000 H       1  UNL1        0.0234
     49 H           8.7422    1.5643    0.0000 H       1  UNL1        0.0234
     50 H           9.3796    0.2302    0.0000 H       1  UNL1        0.2102
     51 H           5.5031    1.6324    0.0000 H       1  UNL1        0.2099
     52 H           3.1963   -2.3519    0.0000 H       1  UNL1        0.0609
     53 H           8.4523    2.0179    0.0000 H       1  UNL1        0.0524
     54 H           8.6760    2.8657    0.0000 H       1  UNL1        0.0524
     55 H           7.8282    3.0894    0.0000 H       1  UNL1        0.0524
     56 H           1.6921   -0.4533    0.0000 H       1  UNL1        0.0660
     57 H           1.4619   -1.2994    0.0000 H       1  UNL1        0.0660
     58 H           2.3079   -1.5296    0.0000 H       1  UNL1        0.0660
@<TRIPOS>BOND
     1     1    12    1
     2     1    24    1
     3    10     2    1
     4     2    50    1
     5    14     3    1
     6     3    51    1
     7    17     4    1
     8     4    27    1
     9     5    22    2
    10     6    24    2
    11     7    25    1
    12     7    28    1
    13     8     9    1
    14     8    10    1
    15     8    12    1
    16     8    18    1
    17     9    11    1
    18     9    14    1
    19     9    29    1
    20    10    15    1
    21    10    19    1
    22    11    13    1
    23    11    20    1
    24    11    22    1
    25    12    16    1
    26    12    30    1
    27    13    16    1
    28    13    21    1
    29    13    31    1
    30    14    17    1
    31    14    32    1
    32    15    17    1
    33    15    23    1
    34    15    33    1
    35    16    34    1
    36    16    35    1
    37    17    36    1
    38    18    37    1
    39    18    38    1
    40    18    39    1
    41    19    24    1
    42    19    40    1
    43    19    41    1
    44    20    42    1
    45    20    43    1
    46    20    44    1
    47    21    26    1
    48    21    45    1
    49    21    46    1
    50    22    25    1
    51    23    47    1
    52    23    48    1
    53    23    49    1
    54    25    26    2
    55    26    52    1
    56    27    53    1
    57    27    54    1
    58    27    55    1
    59    28    56    1
    60    28    57    1
    61    28    58    1
