@<TRIPOS>MOLECULE
IMPHY011038
 56 60 0 0 0
SMALL
GASTEIGER

@<TRIPOS>ATOM
      1 O           5.4396    2.3396    0.0000 O.3     1  UNL1       -0.4908
      2 O           6.3002    1.8427    0.0000 O.3     1  UNL1       -0.4908
      3 O           3.6736    3.3774    0.0000 O.3     1  UNL1       -0.4914
      4 O           8.0819    0.8323    0.0000 O.3     1  UNL1       -0.4914
      5 N           3.6698   -2.7611    0.0000 N.3     1  UNL1       -0.2949
      6 C           2.7677   -2.2403    0.0000 C.3     1  UNL1        0.0148
      7 C           2.0000   -2.9352    0.0000 C.3     1  UNL1       -0.0359
      8 C           2.7757   -1.1987    0.0000 C.3     1  UNL1       -0.0111
      9 C           3.4519   -3.7734    0.0000 C.3     1  UNL1       -0.0004
     10 C           2.4220   -3.8807    0.0000 C.3     1  UNL1       -0.0388
     11 C           4.5678   -2.2334    0.0000 C.3     1  UNL1        0.0252
     12 C           3.6857   -0.6919    0.0000 C.ar    1  UNL1       -0.0331
     13 C           4.5518   -1.1918    0.0000 C.ar    1  UNL1       -0.0217
     14 C           3.6857    0.3081    0.0000 C.ar    1  UNL1       -0.0099
     15 C           5.4178   -0.6919    0.0000 C.ar    1  UNL1       -0.0088
     16 C           4.5518    0.8081    0.0000 C.ar    1  UNL1        0.0390
     17 C           5.4178    0.3081    0.0000 C.ar    1  UNL1        0.0391
     18 C           2.7757    0.8150    0.0000 C.ar    1  UNL1       -0.0501
     19 C           6.3117   -1.2265    0.0000 C.ar    1  UNL1       -0.0500
     20 C           4.5678    1.8496    0.0000 C.ar    1  UNL1        0.1698
     21 C           6.3117    0.8428    0.0000 C.ar    1  UNL1        0.1698
     22 C           2.7677    1.8566    0.0000 C.ar    1  UNL1       -0.0157
     23 C           3.6698    2.3774    0.0000 C.ar    1  UNL1        0.1621
     24 C           7.2178   -0.7127    0.0000 C.ar    1  UNL1       -0.0157
     25 C           7.2178    0.3290    0.0000 C.ar    1  UNL1        0.1621
     26 C           5.4511    3.3395    0.0000 C.3     1  UNL1        0.0790
     27 C           7.1603    2.3527    0.0000 C.3     1  UNL1        0.0790
     28 C           2.8095    3.8807    0.0000 C.3     1  UNL1        0.0790
     29 C           8.9498    0.3356    0.0000 C.3     1  UNL1        0.0790
     30 H           2.2020   -1.9867    0.0000 H       1  UNL1        0.0466
     31 H           1.6346   -2.4343    0.0000 H       1  UNL1        0.0281
     32 H           1.4635   -3.2459    0.0000 H       1  UNL1        0.0281
     33 H           2.5712   -0.6134    0.0000 H       1  UNL1        0.0329
     34 H           2.1641   -1.3001    0.0000 H       1  UNL1        0.0329
     35 H           3.4510   -4.3934    0.0000 H       1  UNL1        0.0427
     36 H           4.0683   -3.8394    0.0000 H       1  UNL1        0.0427
     37 H           1.8324   -4.0725    0.0000 H       1  UNL1        0.0278
     38 H           2.5507   -4.4872    0.0000 H       1  UNL1        0.0278
     39 H           4.7858   -2.8138    0.0000 H       1  UNL1        0.0476
     40 H           5.1770   -2.1179    0.0000 H       1  UNL1        0.0476
     41 H           2.2424    0.4988    0.0000 H       1  UNL1        0.0625
     42 H           6.3046   -1.8465    0.0000 H       1  UNL1        0.0625
     43 H           2.2296    2.1645    0.0000 H       1  UNL1        0.0655
     44 H           7.7535   -1.0247    0.0000 H       1  UNL1        0.0655
     45 H           6.0711    3.3324    0.0000 H       1  UNL1        0.0660
     46 H           5.4583    3.9595    0.0000 H       1  UNL1        0.0660
     47 H           4.8312    3.3467    0.0000 H       1  UNL1        0.0660
     48 H           7.4765    1.8194    0.0000 H       1  UNL1        0.0660
     49 H           7.6937    2.6689    0.0000 H       1  UNL1        0.0660
     50 H           6.8442    2.8860    0.0000 H       1  UNL1        0.0660
     51 H           3.1216    4.4165    0.0000 H       1  UNL1        0.0660
     52 H           2.2738    4.1928    0.0000 H       1  UNL1        0.0660
     53 H           2.4975    3.3450    0.0000 H       1  UNL1        0.0660
     54 H           8.6419   -0.2025    0.0000 H       1  UNL1        0.0660
     55 H           9.4880    0.0277    0.0000 H       1  UNL1        0.0660
     56 H           9.2578    0.8738    0.0000 H       1  UNL1        0.0660
@<TRIPOS>BOND
     1     1    20    1
     2     1    26    1
     3     2    21    1
     4     2    27    1
     5     3    23    1
     6     3    28    1
     7     4    25    1
     8     4    29    1
     9     5     6    1
    10     5     9    1
    11     5    11    1
    12     6     7    1
    13     6     8    1
    14     6    30    1
    15     7    10    1
    16     7    31    1
    17     7    32    1
    18     8    12    1
    19     8    33    1
    20     8    34    1
    21     9    10    1
    22     9    35    1
    23     9    36    1
    24    10    37    1
    25    10    38    1
    26    11    13    1
    27    11    39    1
    28    11    40    1
    29    12    13   ar
    30    12    14   ar
    31    13    15   ar
    32    14    16   ar
    33    14    18   ar
    34    15    17   ar
    35    15    19   ar
    36    16    17   ar
    37    16    20   ar
    38    17    21   ar
    39    18    22   ar
    40    18    41    1
    41    19    24   ar
    42    19    42    1
    43    20    23   ar
    44    21    25   ar
    45    22    23   ar
    46    22    43    1
    47    24    25   ar
    48    24    44    1
    49    26    45    1
    50    26    46    1
    51    26    47    1
    52    27    48    1
    53    27    49    1
    54    27    50    1
    55    28    51    1
    56    28    52    1
    57    28    53    1
    58    29    54    1
    59    29    55    1
    60    29    56    1
