@<TRIPOS>MOLECULE
IMPHY017854
 37 38 0 0 0
SMALL
GASTEIGER

@<TRIPOS>ATOM
      1 O           4.8073   -2.4944    0.0000 O.2     1  UNL1       -0.4669
      2 O           2.0000    1.9774    0.0000 O.3     1  UNL1       -0.3874
      3 C           5.4641   -1.0226    0.0000 C.ar    1  UNL1        0.0005
      4 C           4.5981   -1.5226    0.0000 C.ar    1  UNL1        0.1125
      5 C           3.7320   -1.0226    0.0000 C.3     1  UNL1        0.0267
      6 C           5.4641   -0.0226    0.0000 C.3     1  UNL1       -0.0057
      7 C           3.7320    1.9774    0.0000 C.3     1  UNL1       -0.0022
      8 C           2.8660    1.4774    0.0000 C.3     1  UNL1        0.0772
      9 C           3.7320   -0.0226    0.0000 C.2     1  UNL1       -0.0669
     10 C           4.5981    1.4774    0.0000 C.2     1  UNL1       -0.0735
     11 C           6.2011   -1.6896    0.0000 C.ar    1  UNL1       -0.0090
     12 C           2.8660    0.4774    0.0000 C.2     1  UNL1       -0.0562
     13 C           4.5981    0.4774    0.0000 C.2     1  UNL1       -0.0805
     14 C           5.7960   -2.5974    0.0000 C.ar    1  UNL1        0.0953
     15 C           4.9194    0.9738    0.0000 C.3     1  UNL1       -0.0433
     16 C           5.4641    1.9774    0.0000 C.3     1  UNL1       -0.0437
     17 C           7.1796   -1.4834    0.0000 C.3     1  UNL1       -0.0364
     18 H           3.1215   -0.9149    0.0000 H       1  UNL1        0.0389
     19 H           3.5200   -1.6052    0.0000 H       1  UNL1        0.0389
     20 H           6.0747   -0.1302    0.0000 H       1  UNL1        0.0357
     21 H           5.6762    0.5600    0.0000 H       1  UNL1        0.0357
     22 H           4.1306    2.4524    0.0000 H       1  UNL1        0.0338
     23 H           3.3335    2.4524    0.0000 H       1  UNL1        0.0338
     24 H           2.8660    2.0974    0.0000 H       1  UNL1        0.0641
     25 H           2.3291    0.1674    0.0000 H       1  UNL1        0.0597
     26 H           4.3860   -0.1052    0.0000 H       1  UNL1        0.0575
     27 H           6.1060   -3.1344    0.0000 H       1  UNL1        0.1032
     28 H           5.3180    0.4988    0.0000 H       1  UNL1        0.0274
     29 H           5.3944    1.3723    0.0000 H       1  UNL1        0.0274
     30 H           4.5209    1.4487    0.0000 H       1  UNL1        0.0274
     31 H           5.7741    1.4405    0.0000 H       1  UNL1        0.0274
     32 H           6.0010    2.2874    0.0000 H       1  UNL1        0.0274
     33 H           5.1541    2.5144    0.0000 H       1  UNL1        0.0274
     34 H           7.3075   -2.0901    0.0000 H       1  UNL1        0.0279
     35 H           7.7863   -1.3556    0.0000 H       1  UNL1        0.0279
     36 H           7.0518   -0.8768    0.0000 H       1  UNL1        0.0279
     37 H           2.0000    2.5974    0.0000 H       1  UNL1        0.2102
@<TRIPOS>BOND
     1     1     4   ar
     2     1    14   ar
     3     2     8    1
     4     2    37    1
     5     3     4   ar
     6     3     6    1
     7     3    11   ar
     8     4     5    1
     9     5     9    1
    10     5    18    1
    11     5    19    1
    12     6    13    1
    13     6    20    1
    14     6    21    1
    15     7     8    1
    16     7    10    1
    17     7    22    1
    18     7    23    1
    19     8    12    1
    20     8    24    1
    21     9    12    2
    22     9    15    1
    23    10    13    2
    24    10    16    1
    25    11    14   ar
    26    11    17    1
    27    12    25    1
    28    13    26    1
    29    14    27    1
    30    15    28    1
    31    15    29    1
    32    15    30    1
    33    16    31    1
    34    16    32    1
    35    16    33    1
    36    17    34    1
    37    17    35    1
    38    17    36    1
