@<TRIPOS>MOLECULE
IMPHY013901
 90 96 0 0 0
SMALL
GASTEIGER

@<TRIPOS>ATOM
      1 O           8.3631    0.2093    0.0000 O.3     1  UNL1       -0.3815
      2 O           8.8043    1.0474    0.0000 O.3     1  UNL1       -0.3851
      3 O           7.2868   -0.1215    0.0000 O.3     1  UNL1       -0.3765
      4 O           5.4641    3.6404    0.0000 O.3     1  UNL1       -0.3791
      5 O           9.1810    3.2145    0.0000 O.3     1  UNL1       -0.3910
      6 O           9.5818    4.0983    0.0000 O.3     1  UNL1       -0.3793
      7 O           4.5981   -0.5948    0.0000 O.3     1  UNL1       -0.4605
      8 O           5.4641   -2.0948    0.0000 O.2     1  UNL1       -0.2449
      9 O           3.7320   -5.0948    0.0000 O.2     1  UNL1       -0.2758
     10 N           4.2688    1.8113    0.0000 N.3     1  UNL1       -0.2955
     11 N           4.5981   -3.5948    0.0000 N.am    1  UNL1       -0.2850
     12 C           6.2154    2.2066    0.0000 C.3     1  UNL1        0.0245
     13 C           6.2154    1.3390    0.0000 C.3     1  UNL1        0.0078
     14 C           5.2135    2.1005    0.0000 C.3     1  UNL1        0.0529
     15 C           6.8937    2.7475    0.0000 C.3     1  UNL1       -0.0228
     16 C           7.7396    0.9911    0.0000 C.3     1  UNL1        0.1371
     17 C           7.7396    2.5544    0.0000 C.3     1  UNL1        0.0206
     18 C           8.1160    1.7728    0.0000 C.3     1  UNL1        0.1063
     19 C           6.8937    0.7981    0.0000 C.3     1  UNL1        0.0953
     20 C           5.4641    0.9052    0.0000 C.3     1  UNL1        0.0236
     21 C           5.4641    2.6404    0.0000 C.3     1  UNL1        0.0661
     22 C           6.8160    3.6116    0.0000 C.3     1  UNL1       -0.0416
     23 C           7.6137    3.9526    0.0000 C.3     1  UNL1        0.0120
     24 C           8.1846    3.2992    0.0000 C.3     1  UNL1        0.0662
     25 C           8.7609    2.0427    0.0000 C.3     1  UNL1        0.0059
     26 C           4.2688    1.0594    0.0000 C.3     1  UNL1        0.0084
     27 C           4.7128    1.3390    0.0000 C.3     1  UNL1       -0.0404
     28 C           8.7609    3.5272    0.0000 C.3     1  UNL1        0.0662
     29 C           4.7128    2.2066    0.0000 C.3     1  UNL1       -0.0254
     30 C           5.4641   -0.0948    0.0000 C.3     1  UNL1        0.0999
     31 C           3.4648    2.4060    0.0000 C.3     1  UNL1       -0.0035
     32 C           6.6869   -0.9216    0.0000 C.3     1  UNL1        0.0369
     33 C           2.5478    2.0071    0.0000 C.3     1  UNL1       -0.0523
     34 C           4.5981    4.1404    0.0000 C.3     1  UNL1        0.0368
     35 C           9.4976    5.0948    0.0000 C.3     1  UNL1        0.0368
     36 C           4.5981   -1.5948    0.0000 C.2     1  UNL1        0.3410
     37 C           3.7320   -2.0948    0.0000 C.ar    1  UNL1        0.0801
     38 C           3.7320   -3.0948    0.0000 C.ar    1  UNL1        0.0474
     39 C           2.8660   -1.5948    0.0000 C.ar    1  UNL1       -0.0460
     40 C           2.8660   -3.5948    0.0000 C.ar    1  UNL1       -0.0397
     41 C           2.0000   -2.0948    0.0000 C.ar    1  UNL1       -0.0609
     42 C           2.0000   -3.0948    0.0000 C.ar    1  UNL1       -0.0600
     43 C           4.5981   -4.5948    0.0000 C.2     1  UNL1        0.2141
     44 C           5.4641   -5.0948    0.0000 C.3     1  UNL1        0.0125
     45 H           6.1519    0.4914    0.0000 H       1  UNL1        0.0340
     46 H           5.0895    2.7080    0.0000 H       1  UNL1        0.0499
     47 H           6.1121    3.0816    0.0000 H       1  UNL1        0.0312
     48 H           8.5887    2.5163    0.0000 H       1  UNL1        0.0357
     49 H           6.6933    0.2114    0.0000 H       1  UNL1        0.0629
     50 H           6.0010    2.9504    0.0000 H       1  UNL1        0.0602
     51 H           6.6332    4.2040    0.0000 H       1  UNL1        0.0272
     52 H           6.2077    3.4918    0.0000 H       1  UNL1        0.0272
     53 H           7.5930    4.8023    0.0000 H       1  UNL1        0.0351
     54 H           8.4646    3.8523    0.0000 H       1  UNL1        0.0600
     55 H           8.9228    1.4442    0.0000 H       1  UNL1        0.0319
     56 H           9.3755    2.1244    0.0000 H       1  UNL1        0.0319
     57 H           3.6493    1.0860    0.0000 H       1  UNL1        0.0433
     58 H           4.2158    0.4417    0.0000 H       1  UNL1        0.0433
     59 H           4.1022    1.4466    0.0000 H       1  UNL1        0.0273
     60 H           4.5007    0.7564    0.0000 H       1  UNL1        0.0273
     61 H           8.6827    4.1423    0.0000 H       1  UNL1        0.0600
     62 H           4.5007    2.7892    0.0000 H       1  UNL1        0.0290
     63 H           4.1022    2.0989    0.0000 H       1  UNL1        0.0290
     64 H           5.6762   -0.6774    0.0000 H       1  UNL1        0.0704
     65 H           6.0747    0.0129    0.0000 H       1  UNL1        0.0704
     66 H           8.1366   -0.3678    0.0000 H       1  UNL1        0.2105
     67 H           9.4072    1.1921    0.0000 H       1  UNL1        0.2103
     68 H           3.9145    2.8329    0.0000 H       1  UNL1        0.0424
     69 H           3.1225    2.9230    0.0000 H       1  UNL1        0.0424
     70 H           9.4444    2.6533    0.0000 H       1  UNL1        0.2098
     71 H           6.1909   -0.5497    0.0000 H       1  UNL1        0.0524
     72 H           6.3150   -1.4177    0.0000 H       1  UNL1        0.0524
     73 H           7.1830   -1.2935    0.0000 H       1  UNL1        0.0524
     74 H           2.3005    2.5756    0.0000 H       1  UNL1        0.0242
     75 H           1.9793    1.7598    0.0000 H       1  UNL1        0.0242
     76 H           2.7951    1.4386    0.0000 H       1  UNL1        0.0242
     77 H           4.9081    4.6773    0.0000 H       1  UNL1        0.0524
     78 H           4.0611    4.4504    0.0000 H       1  UNL1        0.0524
     79 H           4.2881    3.6034    0.0000 H       1  UNL1        0.0524
     80 H          10.1154    5.1470    0.0000 H       1  UNL1        0.0524
     81 H           9.4454    5.7126    0.0000 H       1  UNL1        0.0524
     82 H           8.8798    5.0426    0.0000 H       1  UNL1        0.0524
     83 H           2.8660   -0.9748    0.0000 H       1  UNL1        0.0626
     84 H           2.8660   -4.2148    0.0000 H       1  UNL1        0.0636
     85 H           1.4631   -1.7848    0.0000 H       1  UNL1        0.0618
     86 H           5.1350   -3.2848    0.0000 H       1  UNL1        0.1548
     87 H           1.4631   -3.4048    0.0000 H       1  UNL1        0.0618
     88 H           5.1541   -5.6317    0.0000 H       1  UNL1        0.0323
     89 H           6.0010   -5.4048    0.0000 H       1  UNL1        0.0323
     90 H           5.7741   -4.5578    0.0000 H       1  UNL1        0.0323
@<TRIPOS>BOND
     1     1    16    1
     2     1    66    1
     3    18     2    1
     4     2    67    1
     5    19     3    1
     6     3    32    1
     7     4    21    1
     8     4    34    1
     9    24     5    1
    10     5    70    1
    11    28     6    1
    12     6    35    1
    13     7    30    1
    14     7    36    1
    15     8    36    2
    16     9    43    2
    17    10    14    1
    18    10    26    1
    19    10    31    1
    20    11    38    1
    21    11    43   am
    22    11    86    1
    23    12    13    1
    24    12    14    1
    25    12    15    1
    26    12    21    1
    27    13    19    1
    28    13    20    1
    29    13    45    1
    30    14    16    1
    31    14    46    1
    32    15    17    1
    33    15    22    1
    34    15    47    1
    35    16    18    1
    36    16    19    1
    37    17    18    1
    38    17    24    1
    39    17    48    1
    40    18    25    1
    41    19    49    1
    42    20    26    1
    43    20    27    1
    44    20    30    1
    45    21    29    1
    46    21    50    1
    47    22    23    1
    48    22    51    1
    49    22    52    1
    50    23    24    1
    51    23    28    1
    52    23    53    1
    53    24    54    1
    54    25    28    1
    55    25    55    1
    56    25    56    1
    57    26    57    1
    58    26    58    1
    59    27    29    1
    60    27    59    1
    61    27    60    1
    62    28    61    1
    63    29    62    1
    64    29    63    1
    65    30    64    1
    66    30    65    1
    67    31    33    1
    68    31    68    1
    69    31    69    1
    70    32    71    1
    71    32    72    1
    72    32    73    1
    73    33    74    1
    74    33    75    1
    75    33    76    1
    76    34    77    1
    77    34    78    1
    78    34    79    1
    79    35    80    1
    80    35    81    1
    81    35    82    1
    82    36    37    1
    83    37    38   ar
    84    37    39   ar
    85    38    40   ar
    86    39    41   ar
    87    39    83    1
    88    40    42   ar
    89    40    84    1
    90    41    42   ar
    91    41    85    1
    92    42    87    1
    93    43    44    1
    94    44    88    1
    95    44    89    1
    96    44    90    1
