@<TRIPOS>MOLECULE
IMPHY002466
 39 42 0 0 0
SMALL
GASTEIGER

@<TRIPOS>ATOM
      1 O           2.5691    0.8937    0.0000 O.3     1  UNL1       -0.4804
      2 O           3.2566   -0.6961    0.0000 O.2     1  UNL1       -0.2507
      3 C           6.8490    0.5853    0.0000 C.3     1  UNL1       -0.0199
      4 C           6.3490    1.4514    0.0000 C.3     1  UNL1       -0.0281
      5 C           7.3490    1.4514    0.0000 C.3     1  UNL1       -0.0310
      6 C           6.7575   -1.1099    0.0000 C.3     1  UNL1       -0.0230
      7 C           6.8490   -0.0785    0.0000 C.3     1  UNL1       -0.0315
      8 C           6.0442    0.5052    0.0000 C.3     1  UNL1       -0.0305
      9 C           7.6537    0.5052    0.0000 C.3     1  UNL1       -0.0458
     10 C           5.0923    0.0978    0.0000 C.3     1  UNL1       -0.0250
     11 C           5.8152   -1.5391    0.0000 C.3     1  UNL1       -0.0466
     12 C           7.4918   -0.1806    0.0000 C.3     1  UNL1       -0.0585
     13 C           4.9770   -0.9312    0.0000 C.3     1  UNL1       -0.0487
     14 C           7.5738   -1.6876    0.0000 C.3     1  UNL1       -0.0588
     15 C           4.2896    0.6942    0.0000 C.3     1  UNL1        0.0566
     16 C           4.4048    1.6876    0.0000 C.3     1  UNL1       -0.0520
     17 C           3.3718    0.2973    0.0000 C.2     1  UNL1        0.3078
     18 H           5.9839    1.9525    0.0000 H       1  UNL1        0.0312
     19 H           7.7140    1.9525    0.0000 H       1  UNL1        0.0309
     20 H           7.3883   -0.3843    0.0000 H       1  UNL1        0.0309
     21 H           5.5860    0.9228    0.0000 H       1  UNL1        0.0309
     22 H           7.9629   -0.0322    0.0000 H       1  UNL1        0.0271
     23 H           8.2206    0.7562    0.0000 H       1  UNL1        0.0271
     24 H           4.5237   -0.1494    0.0000 H       1  UNL1        0.0311
     25 H           5.3707   -1.9714    0.0000 H       1  UNL1        0.0271
     26 H           6.1650   -2.0510    0.0000 H       1  UNL1        0.0271
     27 H           7.0169   -0.5792    0.0000 H       1  UNL1        0.0235
     28 H           7.8904   -0.6555    0.0000 H       1  UNL1        0.0235
     29 H           7.9668    0.2179    0.0000 H       1  UNL1        0.0235
     30 H           4.3818   -0.7578    0.0000 H       1  UNL1        0.0268
     31 H           4.7042   -1.4880    0.0000 H       1  UNL1        0.0268
     32 H           7.2156   -2.1936    0.0000 H       1  UNL1        0.0235
     33 H           8.0799   -2.0457    0.0000 H       1  UNL1        0.0235
     34 H           7.9320   -1.1815    0.0000 H       1  UNL1        0.0235
     35 H           3.7919    1.0640    0.0000 H       1  UNL1        0.0413
     36 H           5.0206    1.6162    0.0000 H       1  UNL1        0.0238
     37 H           4.4761    2.3034    0.0000 H       1  UNL1        0.0238
     38 H           3.7889    1.7590    0.0000 H       1  UNL1        0.0238
     39 H           2.0000    0.6476    0.0000 H       1  UNL1        0.2951
@<TRIPOS>BOND
     1     1    17    1
     2     1    39    1
     3     2    17    2
     4     3     4    1
     5     3     5    1
     6     3     6    1
     7     3    12    1
     8     4     5    1
     9     4     8    1
    10     4    18    1
    11     5     9    1
    12     5    19    1
    13     6     7    1
    14     6    11    1
    15     6    14    1
    16     7     8    1
    17     7     9    1
    18     7    20    1
    19     8    10    1
    20     8    21    1
    21     9    22    1
    22     9    23    1
    23    10    13    1
    24    10    15    1
    25    10    24    1
    26    11    13    1
    27    11    25    1
    28    11    26    1
    29    12    27    1
    30    12    28    1
    31    12    29    1
    32    13    30    1
    33    13    31    1
    34    14    32    1
    35    14    33    1
    36    14    34    1
    37    15    16    1
    38    15    17    1
    39    15    35    1
    40    16    36    1
    41    16    37    1
    42    16    38    1
