@<TRIPOS>MOLECULE
IMPHY011982
 39 41 0 0 0
SMALL
GASTEIGER

@<TRIPOS>ATOM
      1 C           4.5981   -0.3914    0.0000 C.3     1  UNL1       -0.0128
      2 C           3.7320    0.1086    0.0000 C.3     1  UNL1       -0.0242
      3 C           3.7318   -0.8919    0.0000 C.3     1  UNL1       -0.0101
      4 C           5.4641    0.1086    0.0000 C.3     1  UNL1       -0.0371
      5 C           3.7320    1.1086    0.0000 C.3     1  UNL1       -0.0348
      6 C           5.3356   -1.0586    0.0000 C.3     1  UNL1       -0.0278
      7 C           3.9413   -1.8641    0.0000 C.2     1  UNL1       -0.0726
      8 C           5.4641    1.1086    0.0000 C.3     1  UNL1       -0.0497
      9 C           4.5981    1.6086    0.0000 C.3     1  UNL1       -0.0494
     10 C           4.9305   -1.9669    0.0000 C.2     1  UNL1       -0.0842
     11 C           2.8660    1.6086    0.0000 C.3     1  UNL1       -0.0436
     12 C           6.3301   -0.3914    0.0000 C.3     1  UNL1       -0.0619
     13 C           3.2737   -2.6086    0.0000 C.3     1  UNL1       -0.0435
     14 C           2.8660    2.6086    0.0000 C.3     1  UNL1       -0.0624
     15 C           2.0000    1.1086    0.0000 C.3     1  UNL1       -0.0624
     16 H           3.1120    0.1086    0.0000 H       1  UNL1        0.0315
     17 H           3.1153   -0.9575    0.0000 H       1  UNL1        0.0354
     18 H           5.4641   -0.5114    0.0000 H       1  UNL1        0.0304
     19 H           3.7320    1.7286    0.0000 H       1  UNL1        0.0306
     20 H           5.8722   -1.3693    0.0000 H       1  UNL1        0.0313
     21 H           5.7009   -0.5577    0.0000 H       1  UNL1        0.0313
     22 H           6.0747    1.0009    0.0000 H       1  UNL1        0.0268
     23 H           5.6762    1.6912    0.0000 H       1  UNL1        0.0268
     24 H           4.9966    2.0835    0.0000 H       1  UNL1        0.0268
     25 H           4.1996    2.0835    0.0000 H       1  UNL1        0.0268
     26 H           5.2407   -2.5038    0.0000 H       1  UNL1        0.0572
     27 H           2.8660    0.9886    0.0000 H       1  UNL1        0.0298
     28 H           6.0201   -0.9284    0.0000 H       1  UNL1        0.0233
     29 H           6.8671   -0.7014    0.0000 H       1  UNL1        0.0233
     30 H           6.6401    0.1455    0.0000 H       1  UNL1        0.0233
     31 H           2.8121   -2.1946    0.0000 H       1  UNL1        0.0274
     32 H           2.8597   -3.0701    0.0000 H       1  UNL1        0.0274
     33 H           3.7353   -3.0225    0.0000 H       1  UNL1        0.0274
     34 H           3.4860    2.6086    0.0000 H       1  UNL1        0.0232
     35 H           2.8660    3.2285    0.0000 H       1  UNL1        0.0232
     36 H           2.2460    2.6086    0.0000 H       1  UNL1        0.0232
     37 H           1.6900    1.6455    0.0000 H       1  UNL1        0.0232
     38 H           1.4631    0.7986    0.0000 H       1  UNL1        0.0232
     39 H           2.3100    0.5716    0.0000 H       1  UNL1        0.0232
@<TRIPOS>BOND
     1     1     2    1
     2     1     3    1
     3     1     4    1
     4     1     6    1
     5     2     3    1
     6     2     5    1
     7     2    16    1
     8     3     7    1
     9     3    17    1
    10     4     8    1
    11     4    12    1
    12     4    18    1
    13     5     9    1
    14     5    11    1
    15     5    19    1
    16     6    10    1
    17     6    20    1
    18     6    21    1
    19     7    10    2
    20     7    13    1
    21     8     9    1
    22     8    22    1
    23     8    23    1
    24     9    24    1
    25     9    25    1
    26    10    26    1
    27    11    14    1
    28    11    15    1
    29    11    27    1
    30    12    28    1
    31    12    29    1
    32    12    30    1
    33    13    31    1
    34    13    32    1
    35    13    33    1
    36    14    34    1
    37    14    35    1
    38    14    36    1
    39    15    37    1
    40    15    38    1
    41    15    39    1
