@<TRIPOS>MOLECULE
IMPHY009116
 33 35 0 0 0
SMALL
GASTEIGER

@<TRIPOS>ATOM
      1 O           6.0682   -3.2327    0.0000 O.2     1  UNL1       -0.4220
      2 O           6.0682    2.7673    0.0000 O.3     1  UNL1       -0.4915
      3 O           7.8003    1.7673    0.0000 O.3     1  UNL1       -0.5033
      4 O           2.5381   -3.2568    0.0000 O.3     1  UNL1       -0.5066
      5 O           7.8003   -3.2327    0.0000 O.2     1  UNL1       -0.2452
      6 C           6.0682   -1.2327    0.0000 C.ar    1  UNL1       -0.0003
      7 C           5.2022   -1.7327    0.0000 C.ar    1  UNL1        0.0255
      8 C           6.0682   -0.2327    0.0000 C.ar    1  UNL1       -0.0133
      9 C           5.2022   -2.7327    0.0000 C.ar    1  UNL1        0.1431
     10 C           6.9343   -1.7327    0.0000 C.ar    1  UNL1        0.0313
     11 C           4.3083   -1.1980    0.0000 C.ar    1  UNL1       -0.0470
     12 C           6.9343    0.2673    0.0000 C.ar    1  UNL1       -0.0088
     13 C           5.2022    0.2673    0.0000 C.ar    1  UNL1       -0.0503
     14 C           4.3083   -3.2673    0.0000 C.ar    1  UNL1        0.0229
     15 C           6.9343    1.2673    0.0000 C.ar    1  UNL1        0.1590
     16 C           3.4022   -1.7118    0.0000 C.ar    1  UNL1       -0.0194
     17 C           6.9343   -2.7327    0.0000 C.ar    1  UNL1        0.3378
     18 C           3.4022   -2.7535    0.0000 C.ar    1  UNL1        0.1204
     19 C           6.0682    1.7673    0.0000 C.ar    1  UNL1        0.1613
     20 C           5.2022    1.2673    0.0000 C.ar    1  UNL1       -0.0157
     21 C           5.2022    3.2673    0.0000 C.3     1  UNL1        0.0790
     22 H           7.4712   -1.4227    0.0000 H       1  UNL1        0.0695
     23 H           4.3154   -0.5780    0.0000 H       1  UNL1        0.0626
     24 H           7.4712   -0.0427    0.0000 H       1  UNL1        0.0661
     25 H           4.6653   -0.0427    0.0000 H       1  UNL1        0.0625
     26 H           4.3154   -3.8873    0.0000 H       1  UNL1        0.0691
     27 H           2.8665   -1.3998    0.0000 H       1  UNL1        0.0654
     28 H           4.6653    1.5773    0.0000 H       1  UNL1        0.0655
     29 H           8.3372    1.4573    0.0000 H       1  UNL1        0.2923
     30 H           2.0000   -2.9489    0.0000 H       1  UNL1        0.2921
     31 H           5.5122    3.8043    0.0000 H       1  UNL1        0.0660
     32 H           4.6653    3.5773    0.0000 H       1  UNL1        0.0660
     33 H           4.8922    2.7304    0.0000 H       1  UNL1        0.0660
@<TRIPOS>BOND
     1     1     9   ar
     2     1    17   ar
     3     2    19    1
     4     2    21    1
     5     3    15    1
     6     3    29    1
     7     4    18    1
     8     4    30    1
     9     5    17    2
    10     6     7   ar
    11     6     8    1
    12     6    10   ar
    13     7     9   ar
    14     7    11   ar
    15     8    12   ar
    16     8    13   ar
    17     9    14   ar
    18    10    17   ar
    19    10    22    1
    20    11    16   ar
    21    11    23    1
    22    12    15   ar
    23    12    24    1
    24    13    20   ar
    25    13    25    1
    26    14    18   ar
    27    14    26    1
    28    15    19   ar
    29    16    18   ar
    30    16    27    1
    31    19    20   ar
    32    20    28    1
    33    21    31    1
    34    21    32    1
    35    21    33    1
