@<TRIPOS>MOLECULE
IMPHY005510
 80 86 0 0 0
SMALL
GASTEIGER

@<TRIPOS>ATOM
      1 O          11.2676    1.7801    0.0000 O.3     1  UNL1       -0.3613
      2 O          11.9489    1.5469    0.0000 O.3     1  UNL1       -0.3846
      3 O           8.6570   -0.7614    0.0000 O.3     1  UNL1       -0.3839
      4 O          10.4270   -1.7924    0.0000 O.2     1  UNL1       -0.2939
      5 O           6.0010    2.7840    0.0000 O.3     1  UNL1       -0.3480
      6 O          13.6062   -2.8172    0.0000 O.3     1  UNL1       -0.4571
      7 O           4.2690    2.7840    0.0000 O.3     1  UNL1       -0.3431
      8 O          12.3630   -4.0940    0.0000 O.2     1  UNL1       -0.2456
      9 O           4.2690   -0.2160    0.0000 O.3     1  UNL1       -0.3890
     10 O           2.5369    0.7840    0.0000 O.3     1  UNL1       -0.3866
     11 O           2.5369    3.7840    0.0000 O.3     1  UNL1       -0.3924
     12 C          10.4030    1.2768    0.0000 C.3     1  UNL1        0.1313
     13 C           9.5389    0.7734    0.0000 C.3     1  UNL1        0.0319
     14 C          11.3150    0.7734    0.0000 C.3     1  UNL1        0.1103
     15 C          10.3992    2.2768    0.0000 C.3     1  UNL1        0.0919
     16 C           8.6710    1.2701    0.0000 C.3     1  UNL1       -0.0206
     17 C          11.3270   -0.2681    0.0000 C.3     1  UNL1        0.0668
     18 C           8.6671    2.2701    0.0000 C.3     1  UNL1       -0.0304
     19 C           9.5312    2.7734    0.0000 C.3     1  UNL1       -0.0203
     20 C           9.5269   -0.2681    0.0000 C.3     1  UNL1        0.1197
     21 C          12.2969    1.1022    0.0000 C.3     1  UNL1       -0.0197
     22 C          12.3162   -0.5741    0.0000 C.3     1  UNL1       -0.0012
     23 C          10.4270   -0.7924    0.0000 C.2     1  UNL1        0.1711
     24 C           7.7791    0.7320    0.0000 C.3     1  UNL1       -0.0446
     25 C          12.9144    0.2711    0.0000 C.3     1  UNL1       -0.0427
     26 C           7.7711    2.8013    0.0000 C.3     1  UNL1       -0.0231
     27 C           8.6748    0.2701    0.0000 C.3     1  UNL1       -0.0589
     28 C          11.3386   -1.2681    0.0000 C.3     1  UNL1       -0.0494
     29 C           6.8711    1.2423    0.0000 C.3     1  UNL1       -0.0260
     30 C           6.8671    2.2840    0.0000 C.3     1  UNL1        0.0620
     31 C          12.6379   -1.5210    0.0000 C.2     1  UNL1       -0.0218
     32 C          13.5930   -1.8173    0.0000 C.3     1  UNL1        0.1147
     33 C          12.0609   -2.3378    0.0000 C.2     1  UNL1        0.0252
     34 C           5.1350    2.2840    0.0000 C.3     1  UNL1        0.1625
     35 C          12.6594   -3.1389    0.0000 C.2     1  UNL1        0.3323
     36 C           5.1350    1.2840    0.0000 C.3     1  UNL1        0.0270
     37 C           4.2690    0.7840    0.0000 C.3     1  UNL1        0.0882
     38 C           3.4030    2.2840    0.0000 C.3     1  UNL1        0.1128
     39 C           3.4030    1.2840    0.0000 C.3     1  UNL1        0.1095
     40 C           2.5369    2.7840    0.0000 C.3     1  UNL1        0.0730
     41 H          10.2734    0.3456    0.0000 H       1  UNL1        0.0365
     42 H          10.8212    3.0146    0.0000 H       1  UNL1        0.0626
     43 H           8.6704    3.1201    0.0000 H       1  UNL1        0.0308
     44 H           9.9279    3.2499    0.0000 H       1  UNL1        0.0294
     45 H           9.1309    3.2468    0.0000 H       1  UNL1        0.0294
     46 H           8.9930    0.0470    0.0000 H       1  UNL1        0.0677
     47 H          12.8306    1.4176    0.0000 H       1  UNL1        0.0294
     48 H          12.0393    1.6662    0.0000 H       1  UNL1        0.0294
     49 H          12.9298   -0.6632    0.0000 H       1  UNL1        0.0357
     50 H           7.3873    0.2515    0.0000 H       1  UNL1        0.0272
     51 H           8.1855    0.2638    0.0000 H       1  UNL1        0.0272
     52 H          13.3800   -0.1383    0.0000 H       1  UNL1        0.0272
     53 H          13.3705    0.6911    0.0000 H       1  UNL1        0.0272
     54 H           8.1739    3.2726    0.0000 H       1  UNL1        0.0293
     55 H           7.3757    3.2788    0.0000 H       1  UNL1        0.0293
     56 H           8.0548    0.2677    0.0000 H       1  UNL1        0.0235
     57 H           8.6772   -0.3499    0.0000 H       1  UNL1        0.0235
     58 H           9.2948    0.2725    0.0000 H       1  UNL1        0.0235
     59 H          10.7186   -1.2752    0.0000 H       1  UNL1        0.0240
     60 H          11.3458   -1.8880    0.0000 H       1  UNL1        0.0240
     61 H          11.9585   -1.2609    0.0000 H       1  UNL1        0.0240
     62 H           6.2598    1.3461    0.0000 H       1  UNL1        0.0290
     63 H           6.6643    0.6578    0.0000 H       1  UNL1        0.0290
     64 H           6.8683    2.9040    0.0000 H       1  UNL1        0.0597
     65 H          12.0495    2.1586    0.0000 H       1  UNL1        0.2103
     66 H           8.6523   -1.3814    0.0000 H       1  UNL1        0.2104
     67 H          14.2104   -1.8739    0.0000 H       1  UNL1        0.0746
     68 H          13.7138   -1.2092    0.0000 H       1  UNL1        0.0746
     69 H          11.4409   -2.3460    0.0000 H       1  UNL1        0.0689
     70 H           5.1350    2.9040    0.0000 H       1  UNL1        0.0910
     71 H           5.3471    0.7014    0.0000 H       1  UNL1        0.0340
     72 H           5.7456    1.3916    0.0000 H       1  UNL1        0.0340
     73 H           4.8059    0.4740    0.0000 H       1  UNL1        0.0621
     74 H           3.4030    2.9040    0.0000 H       1  UNL1        0.0647
     75 H           2.8660    1.5940    0.0000 H       1  UNL1        0.0646
     76 H           1.9264    2.8916    0.0000 H       1  UNL1        0.0584
     77 H           2.3249    2.2014    0.0000 H       1  UNL1        0.0584
     78 H           4.8059   -0.5260    0.0000 H       1  UNL1        0.2099
     79 H           2.5369    0.1640    0.0000 H       1  UNL1        0.2100
     80 H           2.0000    4.0940    0.0000 H       1  UNL1        0.2095
@<TRIPOS>BOND
     1    12     1    1
     2     1    15    1
     3    14     2    1
     4     2    65    1
     5    20     3    1
     6     3    66    1
     7     4    23    2
     8    30     5    1
     9    34     5    1
    10     6    32    1
    11     6    35    1
    12     7    34    1
    13     7    38    1
    14     8    35    2
    15    37     9    1
    16     9    78    1
    17    39    10    1
    18    10    79    1
    19    11    40    1
    20    11    80    1
    21    12    13    1
    22    12    14    1
    23    12    15    1
    24    13    16    1
    25    13    20    1
    26    13    41    1
    27    14    17    1
    28    14    21    1
    29    15    19    1
    30    15    42    1
    31    16    18    1
    32    16    24    1
    33    16    27    1
    34    17    22    1
    35    17    23    1
    36    17    28    1
    37    18    19    1
    38    18    26    1
    39    18    43    1
    40    19    44    1
    41    19    45    1
    42    20    23    1
    43    20    46    1
    44    21    25    1
    45    21    47    1
    46    21    48    1
    47    22    25    1
    48    22    31    1
    49    22    49    1
    50    24    29    1
    51    24    50    1
    52    24    51    1
    53    25    52    1
    54    25    53    1
    55    26    30    1
    56    26    54    1
    57    26    55    1
    58    27    56    1
    59    27    57    1
    60    27    58    1
    61    28    59    1
    62    28    60    1
    63    28    61    1
    64    29    30    1
    65    29    62    1
    66    29    63    1
    67    30    64    1
    68    31    32    1
    69    31    33    2
    70    32    67    1
    71    32    68    1
    72    33    35    1
    73    33    69    1
    74    34    36    1
    75    34    70    1
    76    36    37    1
    77    36    71    1
    78    36    72    1
    79    37    39    1
    80    37    73    1
    81    38    39    1
    82    38    40    1
    83    38    74    1
    84    39    75    1
    85    40    76    1
    86    40    77    1
