@<TRIPOS>MOLECULE
IMPHY014468
 34 36 0 0 0
SMALL
GASTEIGER

@<TRIPOS>ATOM
      1 O           7.3424   -1.0427    0.0000 O.3     1  UNL1       -0.4757
      2 O           5.5301    1.7621    0.0000 O.3     1  UNL1       -0.4940
      3 O           2.0000    0.7862    0.0000 O.3     1  UNL1       -0.4914
      4 O           2.0000   -1.2621    0.0000 O.3     1  UNL1       -0.4914
      5 N           5.5301   -1.2379    0.0000 N.ar    1  UNL1       -0.2123
      6 C           6.3961    0.2621    0.0000 C.ar    1  UNL1        0.0595
      7 C           7.3424    0.5668    0.0000 C.3     1  UNL1        0.0152
      8 C           5.5301    0.7621    0.0000 C.ar    1  UNL1        0.1377
      9 C           6.3961   -0.7379    0.0000 C.ar    1  UNL1        0.2222
     10 C           7.9260   -0.2379    0.0000 C.3     1  UNL1        0.0955
     11 C           4.6641    0.2621    0.0000 C.ar    1  UNL1        0.0462
     12 C           4.6641   -0.7379    0.0000 C.ar    1  UNL1        0.0820
     13 C           3.7702    0.7967    0.0000 C.ar    1  UNL1       -0.0036
     14 C           3.7702   -1.2726    0.0000 C.ar    1  UNL1        0.0099
     15 C           2.8641    0.2829    0.0000 C.ar    1  UNL1        0.1623
     16 C           2.8641   -0.7587    0.0000 C.ar    1  UNL1        0.1635
     17 C           6.3961    2.2621    0.0000 C.3     1  UNL1        0.0788
     18 C           2.0038    1.7862    0.0000 C.3     1  UNL1        0.0790
     19 C           2.0038   -2.2621    0.0000 C.3     1  UNL1        0.0790
     20 H           7.8798    0.8760    0.0000 H       1  UNL1        0.0349
     21 H           7.0913    1.1337    0.0000 H       1  UNL1        0.0349
     22 H           8.3869   -0.6527    0.0000 H       1  UNL1        0.0700
     23 H           8.3869    0.1768    0.0000 H       1  UNL1        0.0700
     24 H           3.7773    1.4167    0.0000 H       1  UNL1        0.0663
     25 H           3.7773   -1.8926    0.0000 H       1  UNL1        0.0677
     26 H           6.7062    1.7251    0.0000 H       1  UNL1        0.0660
     27 H           6.9331    2.5721    0.0000 H       1  UNL1        0.0660
     28 H           6.0862    2.7990    0.0000 H       1  UNL1        0.0660
     29 H           2.6238    1.7838    0.0000 H       1  UNL1        0.0660
     30 H           2.0062    2.4062    0.0000 H       1  UNL1        0.0660
     31 H           1.3839    1.7886    0.0000 H       1  UNL1        0.0660
     32 H           1.3839   -2.2645    0.0000 H       1  UNL1        0.0660
     33 H           2.0062   -2.8821    0.0000 H       1  UNL1        0.0660
     34 H           2.6238   -2.2597    0.0000 H       1  UNL1        0.0660
@<TRIPOS>BOND
     1     1     9    1
     2     1    10    1
     3     2     8    1
     4     2    17    1
     5     3    15    1
     6     3    18    1
     7     4    16    1
     8     4    19    1
     9     5     9   ar
    10     5    12   ar
    11     6     7    1
    12     6     8   ar
    13     6     9   ar
    14     7    10    1
    15     7    20    1
    16     7    21    1
    17     8    11   ar
    18    10    22    1
    19    10    23    1
    20    11    12   ar
    21    11    13   ar
    22    12    14   ar
    23    13    15   ar
    24    13    24    1
    25    14    16   ar
    26    14    25    1
    27    15    16   ar
    28    17    26    1
    29    17    27    1
    30    17    28    1
    31    18    29    1
    32    18    30    1
    33    18    31    1
    34    19    32    1
    35    19    33    1
    36    19    34    1
