@<TRIPOS>MOLECULE
IMPHY011312
 72 76 0 0 0
SMALL
GASTEIGER

@<TRIPOS>ATOM
      1 O           6.8671   -0.9276    0.0000 O.3     1  UNL1       -0.3366
      2 O           5.1350   -0.9276    0.0000 O.3     1  UNL1       -0.3405
      3 O           7.7331    1.5724    0.0000 O.3     1  UNL1       -0.3339
      4 O           8.5991    0.0725    0.0000 O.3     1  UNL1       -0.4532
      5 O           5.1350    0.0725    0.0000 O.3     1  UNL1       -0.3863
      6 O           5.1350    2.0724    0.0000 O.3     1  UNL1       -0.3866
      7 O           6.8671   -2.9276    0.0000 O.3     1  UNL1       -0.3841
      8 O           5.1350   -3.9276    0.0000 O.3     1  UNL1       -0.3864
      9 O           3.4030   -2.9276    0.0000 O.3     1  UNL1       -0.3865
     10 O           2.5369   -1.4276    0.0000 O.3     1  UNL1       -0.3924
     11 O          11.1972    0.5724    0.0000 O.2     1  UNL1       -0.4507
     12 O           8.5991    2.0724    0.0000 O.2     1  UNL1       -0.2830
     13 O           9.4434    3.6039    0.0000 O.3     1  UNL1       -0.5058
     14 O          12.9832    3.6176    0.0000 O.3     1  UNL1       -0.5065
     15 O          10.3312   -3.9276    0.0000 O.3     1  UNL1       -0.5068
     16 C           6.8671    0.0725    0.0000 C.3     1  UNL1        0.1519
     17 C           6.0010    0.5724    0.0000 C.3     1  UNL1        0.1155
     18 C           6.0010   -1.4276    0.0000 C.3     1  UNL1        0.1886
     19 C           6.0010    1.5724    0.0000 C.3     1  UNL1        0.1096
     20 C           6.0010   -2.4276    0.0000 C.3     1  UNL1        0.1341
     21 C           5.1350   -2.9276    0.0000 C.3     1  UNL1        0.1141
     22 C           7.7331    0.5724    0.0000 C.3     1  UNL1        0.2314
     23 C           4.2690   -2.4276    0.0000 C.3     1  UNL1        0.1119
     24 C           6.8671    2.0724    0.0000 C.3     1  UNL1        0.0883
     25 C           4.2690   -1.4276    0.0000 C.3     1  UNL1        0.1130
     26 C           3.4030   -0.9276    0.0000 C.3     1  UNL1        0.0730
     27 C           6.8671    3.0724    0.0000 C.3     1  UNL1       -0.0360
     28 C           9.4651    0.5724    0.0000 C.ar    1  UNL1        0.2138
     29 C          10.3312    0.0725    0.0000 C.ar    1  UNL1        0.1809
     30 C           9.4651    1.5724    0.0000 C.ar    1  UNL1        0.2382
     31 C          10.3312    2.0724    0.0000 C.ar    1  UNL1        0.1092
     32 C          10.3312   -0.9276    0.0000 C.ar    1  UNL1        0.0213
     33 C          11.1972    1.5724    0.0000 C.ar    1  UNL1        0.1465
     34 C          10.3151    3.1140    0.0000 C.ar    1  UNL1        0.1348
     35 C          12.1072    2.0793    0.0000 C.ar    1  UNL1        0.0231
     36 C          11.1972   -1.4276    0.0000 C.ar    1  UNL1       -0.0475
     37 C           9.4651   -1.4276    0.0000 C.ar    1  UNL1       -0.0475
     38 C          11.2131    3.6417    0.0000 C.ar    1  UNL1        0.0223
     39 C          12.1152    3.1209    0.0000 C.ar    1  UNL1        0.1239
     40 C          11.1972   -2.4276    0.0000 C.ar    1  UNL1       -0.0195
     41 C           9.4651   -2.4276    0.0000 C.ar    1  UNL1       -0.0195
     42 C          10.3312   -2.9276    0.0000 C.ar    1  UNL1        0.1169
     43 H           7.4040   -0.2376    0.0000 H       1  UNL1        0.0687
     44 H           6.0010   -0.0475    0.0000 H       1  UNL1        0.0648
     45 H           6.5380   -1.7376    0.0000 H       1  UNL1        0.0938
     46 H           5.4641    1.2624    0.0000 H       1  UNL1        0.0646
     47 H           6.0010   -3.0476    0.0000 H       1  UNL1        0.0671
     48 H           4.5981   -3.2376    0.0000 H       1  UNL1        0.0648
     49 H           8.2700    0.8824    0.0000 H       1  UNL1        0.1084
     50 H           3.7320   -2.1176    0.0000 H       1  UNL1        0.0647
     51 H           7.4040    2.3824    0.0000 H       1  UNL1        0.0621
     52 H           4.2690   -0.8076    0.0000 H       1  UNL1        0.0647
     53 H           3.8015   -0.4526    0.0000 H       1  UNL1        0.0584
     54 H           3.0044   -0.4526    0.0000 H       1  UNL1        0.0584
     55 H           7.4871    3.0724    0.0000 H       1  UNL1        0.0255
     56 H           6.8671    3.6924    0.0000 H       1  UNL1        0.0255
     57 H           6.2471    3.0724    0.0000 H       1  UNL1        0.0255
     58 H           4.5981    0.3824    0.0000 H       1  UNL1        0.2100
     59 H           5.1350    2.6924    0.0000 H       1  UNL1        0.2100
     60 H           7.4040   -2.6176    0.0000 H       1  UNL1        0.2101
     61 H           5.6720   -4.2376    0.0000 H       1  UNL1        0.2100
     62 H           3.4030   -3.5476    0.0000 H       1  UNL1        0.2100
     63 H           2.0000   -1.1176    0.0000 H       1  UNL1        0.2095
     64 H          12.6405    1.7631    0.0000 H       1  UNL1        0.0691
     65 H          11.7341   -1.1176    0.0000 H       1  UNL1        0.0626
     66 H           8.9282   -1.1176    0.0000 H       1  UNL1        0.0626
     67 H          11.2108    4.2617    0.0000 H       1  UNL1        0.0691
     68 H          11.7341   -2.7376    0.0000 H       1  UNL1        0.0654
     69 H           8.9282   -2.7376    0.0000 H       1  UNL1        0.0654
     70 H           9.4362    4.2239    0.0000 H       1  UNL1        0.2922
     71 H          12.9856    4.2376    0.0000 H       1  UNL1        0.2921
     72 H          10.8681   -4.2376    0.0000 H       1  UNL1        0.2921
@<TRIPOS>BOND
     1    16     1    1
     2    18     1    1
     3     2    18    1
     4     2    25    1
     5     3    22    1
     6     3    24    1
     7    22     4    1
     8     4    28    1
     9    17     5    1
    10     5    58    1
    11    19     6    1
    12     6    59    1
    13    20     7    1
    14     7    60    1
    15    21     8    1
    16     8    61    1
    17    23     9    1
    18     9    62    1
    19    10    26    1
    20    10    63    1
    21    11    29   ar
    22    11    33   ar
    23    12    30    2
    24    13    34    1
    25    13    70    1
    26    14    39    1
    27    14    71    1
    28    15    42    1
    29    15    72    1
    30    16    17    1
    31    16    22    1
    32    16    43    1
    33    17    19    1
    34    17    44    1
    35    18    20    1
    36    18    45    1
    37    19    24    1
    38    19    46    1
    39    20    21    1
    40    20    47    1
    41    21    23    1
    42    21    48    1
    43    22    49    1
    44    23    25    1
    45    23    50    1
    46    24    27    1
    47    24    51    1
    48    25    26    1
    49    25    52    1
    50    26    53    1
    51    26    54    1
    52    27    55    1
    53    27    56    1
    54    27    57    1
    55    28    29   ar
    56    28    30   ar
    57    29    32    1
    58    30    31   ar
    59    31    33   ar
    60    31    34   ar
    61    32    36   ar
    62    32    37   ar
    63    33    35   ar
    64    34    38   ar
    65    35    39   ar
    66    35    64    1
    67    36    40   ar
    68    36    65    1
    69    37    41   ar
    70    37    66    1
    71    38    39   ar
    72    38    67    1
    73    40    42   ar
    74    40    68    1
    75    41    42   ar
    76    41    69    1
