@<TRIPOS>MOLECULE
IMPHY005720
 54 56 0 0 0
SMALL
GASTEIGER

@<TRIPOS>ATOM
      1 O           4.5981    1.5000    0.0000 O.2     1  UNL1       -0.2756
      2 O          15.0706    0.3047    0.0000 O.3     1  UNL1       -0.4526
      3 O          15.0706   -1.3047    0.0000 O.3     1  UNL1       -0.4526
      4 N           3.7320    0.0000    0.0000 N.am    1  UNL1       -0.3015
      5 C           2.0000   -1.0000    0.0000 C.3     1  UNL1       -0.0502
      6 C           2.0000   -0.0000    0.0000 C.3     1  UNL1       -0.0371
      7 C           2.8660   -1.5000    0.0000 C.3     1  UNL1       -0.0371
      8 C           2.8660    0.5000    0.0000 C.3     1  UNL1        0.0147
      9 C           3.7320   -1.0000    0.0000 C.3     1  UNL1        0.0147
     10 C           4.5981    0.5000    0.0000 C.2     1  UNL1        0.2156
     11 C           5.4641    0.0000    0.0000 C.3     1  UNL1        0.0242
     12 C           6.3301    0.5000    0.0000 C.3     1  UNL1       -0.0448
     13 C           7.1962    0.0000    0.0000 C.3     1  UNL1       -0.0526
     14 C           8.0622    0.5000    0.0000 C.3     1  UNL1       -0.0528
     15 C           8.9282    0.0000    0.0000 C.3     1  UNL1       -0.0496
     16 C           9.7942    0.5000    0.0000 C.3     1  UNL1       -0.0345
     17 C          10.6603    0.0000    0.0000 C.2     1  UNL1       -0.0835
     18 C          11.5263    0.5000    0.0000 C.2     1  UNL1       -0.0584
     19 C          12.3923    0.0000    0.0000 C.ar    1  UNL1       -0.0216
     20 C          13.2583    0.5000    0.0000 C.ar    1  UNL1       -0.0090
     21 C          14.1244    0.0000    0.0000 C.ar    1  UNL1        0.1668
     22 C          12.3923   -1.0000    0.0000 C.ar    1  UNL1       -0.0509
     23 C          14.1244   -1.0000    0.0000 C.ar    1  UNL1        0.1663
     24 C          13.2583   -1.5000    0.0000 C.ar    1  UNL1       -0.0156
     25 C          15.6542   -0.5000    0.0000 C.3     1  UNL1        0.2332
     26 H           1.3894   -0.8923    0.0000 H       1  UNL1        0.0266
     27 H           1.7880   -1.5826    0.0000 H       1  UNL1        0.0266
     28 H           1.7880    0.5826    0.0000 H       1  UNL1        0.0280
     29 H           1.3894   -0.1077    0.0000 H       1  UNL1        0.0280
     30 H           2.4675   -1.9750    0.0000 H       1  UNL1        0.0280
     31 H           3.2646   -1.9750    0.0000 H       1  UNL1        0.0280
     32 H           3.2646    0.9749    0.0000 H       1  UNL1        0.0464
     33 H           2.4675    0.9749    0.0000 H       1  UNL1        0.0464
     34 H           3.9441   -1.5826    0.0000 H       1  UNL1        0.0464
     35 H           4.3426   -0.8923    0.0000 H       1  UNL1        0.0464
     36 H           5.0656   -0.4749    0.0000 H       1  UNL1        0.0358
     37 H           5.8626   -0.4749    0.0000 H       1  UNL1        0.0358
     38 H           6.7287    0.9749    0.0000 H       1  UNL1        0.0270
     39 H           5.9316    0.9749    0.0000 H       1  UNL1        0.0270
     40 H           6.7976   -0.4749    0.0000 H       1  UNL1        0.0265
     41 H           7.5947   -0.4749    0.0000 H       1  UNL1        0.0265
     42 H           8.4607    0.9749    0.0000 H       1  UNL1        0.0265
     43 H           7.6636    0.9749    0.0000 H       1  UNL1        0.0265
     44 H           8.5297   -0.4749    0.0000 H       1  UNL1        0.0268
     45 H           9.3267   -0.4749    0.0000 H       1  UNL1        0.0268
     46 H          10.1928    0.9749    0.0000 H       1  UNL1        0.0307
     47 H           9.3957    0.9749    0.0000 H       1  UNL1        0.0307
     48 H          10.6603   -0.6200    0.0000 H       1  UNL1        0.0572
     49 H          11.5263    1.1200    0.0000 H       1  UNL1        0.0620
     50 H          13.2583    1.1200    0.0000 H       1  UNL1        0.0661
     51 H          11.8554   -1.3100    0.0000 H       1  UNL1        0.0625
     52 H          13.2583   -2.1200    0.0000 H       1  UNL1        0.0655
     53 H          16.1151   -0.9147    0.0000 H       1  UNL1        0.1166
     54 H          16.1151   -0.0853    0.0000 H       1  UNL1        0.1166
@<TRIPOS>BOND
     1     1    10    2
     2     2    21    1
     3     2    25    1
     4     3    23    1
     5     3    25    1
     6     4     8    1
     7     4     9    1
     8     4    10   am
     9     5     6    1
    10     5     7    1
    11     5    26    1
    12     5    27    1
    13     6     8    1
    14     6    28    1
    15     6    29    1
    16     7     9    1
    17     7    30    1
    18     7    31    1
    19     8    32    1
    20     8    33    1
    21     9    34    1
    22     9    35    1
    23    10    11    1
    24    11    12    1
    25    11    36    1
    26    11    37    1
    27    12    13    1
    28    12    38    1
    29    12    39    1
    30    13    14    1
    31    13    40    1
    32    13    41    1
    33    14    15    1
    34    14    42    1
    35    14    43    1
    36    15    16    1
    37    15    44    1
    38    15    45    1
    39    16    17    1
    40    16    46    1
    41    16    47    1
    42    17    18    2
    43    17    48    1
    44    18    19    1
    45    18    49    1
    46    19    20   ar
    47    19    22   ar
    48    20    21   ar
    49    20    50    1
    50    21    23   ar
    51    22    24   ar
    52    22    51    1
    53    23    24   ar
    54    24    52    1
    55    25    53    1
    56    25    54    1
