@<TRIPOS>MOLECULE
IMPHY002486
 53 55 0 0 0
SMALL
GASTEIGER

@<TRIPOS>ATOM
      1 O           2.5369    2.3053    0.0000 O.3     1  UNL1       -0.3912
      2 O           4.2690    4.0374    0.0000 O.3     1  UNL1       -0.3944
      3 O           5.1456   -1.2192    0.0000 O.2     1  UNL1       -0.2964
      4 O           7.3482   -3.7837    0.0000 O.3     1  UNL1       -0.4571
      5 O           5.7512   -4.5743    0.0000 O.2     1  UNL1       -0.2456
      6 C           5.1350    0.8053    0.0000 C.3     1  UNL1       -0.0153
      7 C           5.1350    1.8053    0.0000 C.3     1  UNL1       -0.0246
      8 C           4.2690    2.3053    0.0000 C.3     1  UNL1        0.0203
      9 C           4.2690    0.3053    0.0000 C.3     1  UNL1       -0.0441
     10 C           6.0290    0.2707    0.0000 C.3     1  UNL1        0.0442
     11 C           3.4030    1.8053    0.0000 C.3     1  UNL1        0.0630
     12 C           6.0290    2.3400    0.0000 C.3     1  UNL1       -0.0453
     13 C           3.4030    0.8053    0.0000 C.3     1  UNL1       -0.0257
     14 C           5.1350   -0.1947    0.0000 C.3     1  UNL1       -0.0584
     15 C           6.9350    1.8261    0.0000 C.3     1  UNL1       -0.0310
     16 C           6.9350    0.7845    0.0000 C.2     1  UNL1       -0.0659
     17 C           3.7690    3.1714    0.0000 C.3     1  UNL1        0.0522
     18 C           4.7690    3.1714    0.0000 C.3     1  UNL1       -0.0548
     19 C           6.0174   -0.7293    0.0000 C.2     1  UNL1        0.1450
     20 C           7.7991    0.2812    0.0000 C.2     1  UNL1       -0.0988
     21 C           6.8776   -1.2392    0.0000 C.3     1  UNL1        0.0313
     22 C           6.8660   -2.2392    0.0000 C.2     1  UNL1       -0.0188
     23 C           7.6682   -2.8363    0.0000 C.3     1  UNL1        0.1148
     24 C           6.0502   -2.8176    0.0000 C.2     1  UNL1        0.0253
     25 C           6.3482   -3.7721    0.0000 C.2     1  UNL1        0.3323
     26 H           5.1285    2.6553    0.0000 H       1  UNL1        0.0313
     27 H           3.8705   -0.1696    0.0000 H       1  UNL1        0.0272
     28 H           4.6675   -0.1696    0.0000 H       1  UNL1        0.0272
     29 H           6.5629   -0.0445    0.0000 H       1  UNL1        0.0428
     30 H           2.8660    1.4953    0.0000 H       1  UNL1        0.0599
     31 H           6.4226    2.8190    0.0000 H       1  UNL1        0.0271
     32 H           5.6244    2.8098    0.0000 H       1  UNL1        0.0271
     33 H           2.7924    0.9130    0.0000 H       1  UNL1        0.0290
     34 H           3.1909    0.2227    0.0000 H       1  UNL1        0.0290
     35 H           4.5150   -0.1947    0.0000 H       1  UNL1        0.0235
     36 H           5.1350   -0.8147    0.0000 H       1  UNL1        0.0235
     37 H           5.7550   -0.1947    0.0000 H       1  UNL1        0.0235
     38 H           7.5459    1.7200    0.0000 H       1  UNL1        0.0310
     39 H           7.1441    2.4098    0.0000 H       1  UNL1        0.0310
     40 H           3.2940    3.5699    0.0000 H       1  UNL1        0.0563
     41 H           3.2940    2.7728    0.0000 H       1  UNL1        0.0563
     42 H           5.3059    2.8614    0.0000 H       1  UNL1        0.0237
     43 H           5.0790    3.7083    0.0000 H       1  UNL1        0.0237
     44 H           4.2320    3.4814    0.0000 H       1  UNL1        0.0237
     45 H           2.0000    1.9953    0.0000 H       1  UNL1        0.2098
     46 H           7.7967   -0.3388    0.0000 H       1  UNL1        0.0535
     47 H           8.3372    0.5891    0.0000 H       1  UNL1        0.0535
     48 H           7.4869   -1.3540    0.0000 H       1  UNL1        0.0388
     49 H           7.0964   -0.6591    0.0000 H       1  UNL1        0.0388
     50 H           3.9590    4.5743    0.0000 H       1  UNL1        0.2094
     51 H           8.2316   -3.0950    0.0000 H       1  UNL1        0.0746
     52 H           7.9844   -2.3030    0.0000 H       1  UNL1        0.0746
     53 H           5.4629   -2.6192    0.0000 H       1  UNL1        0.0690
@<TRIPOS>BOND
     1    11     1    1
     2     1    45    1
     3     2    17    1
     4     2    50    1
     5     3    19    2
     6     4    23    1
     7     4    25    1
     8     5    25    2
     9     6     7    1
    10     6     9    1
    11     6    10    1
    12     6    14    1
    13     7     8    1
    14     7    12    1
    15     7    26    1
    16     8    11    1
    17     8    17    1
    18     8    18    1
    19     9    13    1
    20     9    27    1
    21     9    28    1
    22    10    16    1
    23    10    19    1
    24    10    29    1
    25    11    13    1
    26    11    30    1
    27    12    15    1
    28    12    31    1
    29    12    32    1
    30    13    33    1
    31    13    34    1
    32    14    35    1
    33    14    36    1
    34    14    37    1
    35    15    16    1
    36    15    38    1
    37    15    39    1
    38    16    20    2
    39    17    40    1
    40    17    41    1
    41    18    42    1
    42    18    43    1
    43    18    44    1
    44    19    21    1
    45    20    46    1
    46    20    47    1
    47    21    22    1
    48    21    48    1
    49    21    49    1
    50    22    23    1
    51    22    24    2
    52    23    51    1
    53    23    52    1
    54    24    25    1
    55    24    53    1
