@<TRIPOS>MOLECULE
IMPHY016602
 14 14 0 0 0
SMALL
GASTEIGER

@<TRIPOS>ATOM
      1 O           2.8090    1.2694    0.0000 O.2     1  UNL1       -0.2974
      2 C           2.3090   -1.2694    0.0000 C.3     1  UNL1       -0.0460
      3 C           3.3090   -1.2694    0.0000 C.3     1  UNL1       -0.0460
      4 C           2.0000   -0.3184    0.0000 C.3     1  UNL1        0.0058
      5 C           3.6180   -0.3184    0.0000 C.3     1  UNL1        0.0058
      6 C           2.8090    0.2694    0.0000 C.2     1  UNL1        0.1334
      7 H           1.7026   -1.3983    0.0000 H       1  UNL1        0.0269
      8 H           2.3738   -1.8860    0.0000 H       1  UNL1        0.0269
      9 H           3.2442   -1.8860    0.0000 H       1  UNL1        0.0269
     10 H           3.9155   -1.3983    0.0000 H       1  UNL1        0.0269
     11 H           1.6900    0.2186    0.0000 H       1  UNL1        0.0342
     12 H           1.4336   -0.5705    0.0000 H       1  UNL1        0.0342
     13 H           4.1844   -0.5705    0.0000 H       1  UNL1        0.0342
     14 H           3.9280    0.2186    0.0000 H       1  UNL1        0.0342
@<TRIPOS>BOND
     1     1     6    2
     2     2     3    1
     3     2     4    1
     4     2     7    1
     5     2     8    1
     6     3     5    1
     7     3     9    1
     8     3    10    1
     9     4     6    1
    10     4    11    1
    11     4    12    1
    12     5     6    1
    13     5    13    1
    14     5    14    1
