@<TRIPOS>MOLECULE
IMPHY003104
 32 31 0 0 0
SMALL
GASTEIGER

@<TRIPOS>ATOM
      1 O           2.5369    0.7500    0.0000 O.3     1  UNL1       -0.4806
      2 O           3.4030   -0.7500    0.0000 O.2     1  UNL1       -0.2510
      3 C           7.7331    0.7500    0.0000 C.3     1  UNL1       -0.0531
      4 C           6.8671    0.2500    0.0000 C.3     1  UNL1       -0.0530
      5 C           8.5991    0.2500    0.0000 C.3     1  UNL1       -0.0531
      6 C           6.0010    0.7500    0.0000 C.3     1  UNL1       -0.0526
      7 C           9.4651    0.7500    0.0000 C.3     1  UNL1       -0.0533
      8 C           5.1350    0.2500    0.0000 C.3     1  UNL1       -0.0430
      9 C          10.3312    0.2500    0.0000 C.3     1  UNL1       -0.0559
     10 C           4.2690    0.7500    0.0000 C.3     1  UNL1        0.0448
     11 C          11.1972    0.7500    0.0000 C.3     1  UNL1       -0.0653
     12 C           3.4030    0.2500    0.0000 C.2     1  UNL1        0.3047
     13 H           8.1316    1.2250    0.0000 H       1  UNL1        0.0265
     14 H           7.3346    1.2250    0.0000 H       1  UNL1        0.0265
     15 H           6.4685   -0.2249    0.0000 H       1  UNL1        0.0265
     16 H           7.2656   -0.2249    0.0000 H       1  UNL1        0.0265
     17 H           8.2006   -0.2249    0.0000 H       1  UNL1        0.0265
     18 H           8.9976   -0.2249    0.0000 H       1  UNL1        0.0265
     19 H           6.3996    1.2250    0.0000 H       1  UNL1        0.0265
     20 H           5.6025    1.2250    0.0000 H       1  UNL1        0.0265
     21 H           9.8637    1.2250    0.0000 H       1  UNL1        0.0265
     22 H           9.0666    1.2250    0.0000 H       1  UNL1        0.0265
     23 H           4.7365   -0.2249    0.0000 H       1  UNL1        0.0270
     24 H           5.5335   -0.2249    0.0000 H       1  UNL1        0.0270
     25 H           9.9326   -0.2249    0.0000 H       1  UNL1        0.0263
     26 H          10.7297   -0.2249    0.0000 H       1  UNL1        0.0263
     27 H           4.6675    1.2250    0.0000 H       1  UNL1        0.0377
     28 H           3.8705    1.2250    0.0000 H       1  UNL1        0.0377
     29 H          11.5072    0.2131    0.0000 H       1  UNL1        0.0230
     30 H          11.7341    1.0600    0.0000 H       1  UNL1        0.0230
     31 H          10.8872    1.2869    0.0000 H       1  UNL1        0.0230
     32 H           2.0000    0.4400    0.0000 H       1  UNL1        0.2951
@<TRIPOS>BOND
     1     1    12    1
     2     1    32    1
     3     2    12    2
     4     3     4    1
     5     3     5    1
     6     3    13    1
     7     3    14    1
     8     4     6    1
     9     4    15    1
    10     4    16    1
    11     5     7    1
    12     5    17    1
    13     5    18    1
    14     6     8    1
    15     6    19    1
    16     6    20    1
    17     7     9    1
    18     7    21    1
    19     7    22    1
    20     8    10    1
    21     8    23    1
    22     8    24    1
    23     9    11    1
    24     9    25    1
    25     9    26    1
    26    10    12    1
    27    10    27    1
    28    10    28    1
    29    11    29    1
    30    11    30    1
    31    11    31    1
