@<TRIPOS>MOLECULE
IMPHY009865
 22 22 0 0 0
SMALL
GASTEIGER

@<TRIPOS>ATOM
      1 C           3.7320    0.2500    0.0000 C.ar    1  UNL1       -0.0224
      2 C           2.8660   -1.2500    0.0000 C.ar    1  UNL1       -0.0499
      3 C           2.8660   -0.2500    0.0000 C.ar    1  UNL1       -0.0514
      4 C           3.7320    1.2500    0.0000 C.2     1  UNL1       -0.0504
      5 C           4.5981   -0.2500    0.0000 C.ar    1  UNL1       -0.0543
      6 C           3.7320   -1.7500    0.0000 C.ar    1  UNL1       -0.0588
      7 C           4.5981   -1.2500    0.0000 C.ar    1  UNL1       -0.0609
      8 C           2.0000   -1.7500    0.0000 C.3     1  UNL1       -0.0397
      9 C           4.5981    1.7500    0.0000 C.3     1  UNL1       -0.0397
     10 C           2.8660    1.7500    0.0000 C.2     1  UNL1       -0.0952
     11 H           2.3291    0.0600    0.0000 H       1  UNL1        0.0626
     12 H           5.1350    0.0600    0.0000 H       1  UNL1        0.0624
     13 H           3.7320   -2.3700    0.0000 H       1  UNL1        0.0620
     14 H           5.1350   -1.5600    0.0000 H       1  UNL1        0.0618
     15 H           1.6900   -1.2131    0.0000 H       1  UNL1        0.0278
     16 H           1.4631   -2.0600    0.0000 H       1  UNL1        0.0278
     17 H           2.3100   -2.2869    0.0000 H       1  UNL1        0.0278
     18 H           4.9081    1.2131    0.0000 H       1  UNL1        0.0278
     19 H           5.1350    2.0600    0.0000 H       1  UNL1        0.0278
     20 H           4.2881    2.2869    0.0000 H       1  UNL1        0.0278
     21 H           2.8660    2.3700    0.0000 H       1  UNL1        0.0538
     22 H           2.3291    1.4400    0.0000 H       1  UNL1        0.0538
@<TRIPOS>BOND
     1     1     3   ar
     2     1     4    1
     3     1     5   ar
     4     2     3   ar
     5     2     6   ar
     6     2     8    1
     7     3    11    1
     8     4     9    1
     9     4    10    2
    10     5     7   ar
    11     5    12    1
    12     6     7   ar
    13     6    13    1
    14     7    14    1
    15     8    15    1
    16     8    16    1
    17     8    17    1
    18     9    18    1
    19     9    19    1
    20     9    20    1
    21    10    21    1
    22    10    22    1
