@<TRIPOS>MOLECULE
IMPHY015024
 36 40 0 0 0
SMALL
GASTEIGER

@<TRIPOS>ATOM
      1 O           2.5099   -0.9467    0.0000 O.3     1  UNL1       -0.3853
      2 O           6.9742    0.7936    0.0000 O.3     1  UNL1       -0.4520
      3 O           6.9742    2.4031    0.0000 O.3     1  UNL1       -0.4526
      4 N           2.5466    1.1197    0.0000 N.3     1  UNL1       -0.3067
      5 C           3.3859    0.5915    0.0000 C.3     1  UNL1        0.0643
      6 C           4.2959    1.0984    0.0000 C.ar    1  UNL1       -0.0130
      7 C           3.3779   -0.4501    0.0000 C.3     1  UNL1        0.1001
      8 C           5.1619    0.5984    0.0000 C.ar    1  UNL1        0.0329
      9 C           4.2959    2.0984    0.0000 C.ar    1  UNL1       -0.0371
     10 C           3.4377    2.5953    0.0000 C.3     1  UNL1       -0.0146
     11 C           4.2799   -0.9709    0.0000 C.ar    1  UNL1       -0.0095
     12 C           2.5722    2.1111    0.0000 C.3     1  UNL1        0.0005
     13 C           5.1780   -0.4431    0.0000 C.ar    1  UNL1       -0.0083
     14 C           6.0279    1.0984    0.0000 C.ar    1  UNL1        0.1742
     15 C           5.1619    2.5984    0.0000 C.ar    1  UNL1       -0.0126
     16 C           6.0279    2.0984    0.0000 C.ar    1  UNL1        0.1671
     17 C           4.2716   -2.0559    0.0000 C.ar    1  UNL1       -0.0555
     18 C           6.1299   -0.9638    0.0000 C.ar    1  UNL1       -0.0536
     19 C           7.5578    1.5984    0.0000 C.3     1  UNL1        0.2333
     20 C           5.2112   -2.5984    0.0000 C.ar    1  UNL1       -0.0614
     21 C           6.1466   -2.0486    0.0000 C.ar    1  UNL1       -0.0612
     22 H           2.6402    0.1835    0.0000 H       1  UNL1        0.0539
     23 H           3.3767   -1.0701    0.0000 H       1  UNL1        0.0663
     24 H           3.8387    3.0681    0.0000 H       1  UNL1        0.0326
     25 H           3.0436    3.0740    0.0000 H       1  UNL1        0.0326
     26 H           2.0000    0.8271    0.0000 H       1  UNL1        0.1226
     27 H           2.3704    2.6974    0.0000 H       1  UNL1        0.0427
     28 H           1.9594    2.0168    0.0000 H       1  UNL1        0.0427
     29 H           5.1619    3.2184    0.0000 H       1  UNL1        0.0658
     30 H           3.7334   -2.3638    0.0000 H       1  UNL1        0.0621
     31 H           6.6608   -0.6435    0.0000 H       1  UNL1        0.0624
     32 H           2.5075   -1.5667    0.0000 H       1  UNL1        0.2103
     33 H           8.0186    1.1836    0.0000 H       1  UNL1        0.1166
     34 H           8.0186    2.0131    0.0000 H       1  UNL1        0.1166
     35 H           5.2136   -3.2184    0.0000 H       1  UNL1        0.0618
     36 H           6.6871   -2.3524    0.0000 H       1  UNL1        0.0618
@<TRIPOS>BOND
     1     7     1    1
     2     1    32    1
     3     2    14    1
     4     2    19    1
     5     3    16    1
     6     3    19    1
     7     4     5    1
     8     4    12    1
     9     4    26    1
    10     5     6    1
    11     5     7    1
    12     5    22    1
    13     6     8   ar
    14     6     9   ar
    15     7    11    1
    16     7    23    1
    17     8    13    1
    18     8    14   ar
    19     9    10    1
    20     9    15   ar
    21    10    12    1
    22    10    24    1
    23    10    25    1
    24    11    13   ar
    25    11    17   ar
    26    12    27    1
    27    12    28    1
    28    13    18   ar
    29    14    16   ar
    30    15    16   ar
    31    15    29    1
    32    17    20   ar
    33    17    30    1
    34    18    21   ar
    35    18    31    1
    36    19    33    1
    37    19    34    1
    38    20    21   ar
    39    20    35    1
    40    21    36    1
