@<TRIPOS>MOLECULE
IMPHY002099
 61 66 0 0 0
SMALL
GASTEIGER

@<TRIPOS>ATOM
      1 O           8.7296   -0.3870    0.0000 O.3     1  UNL1       -0.3533
      2 O           6.0940    1.9704    0.0000 O.3     1  UNL1       -0.4573
      3 O           8.5554    1.3465    0.0000 O.3     1  UNL1       -0.4658
      4 O           6.8824    1.7948    0.0000 O.2     1  UNL1       -0.2474
      5 O           7.5940    2.8364    0.0000 O.2     1  UNL1       -0.2512
      6 N           5.5743   -2.6647    0.0000 N.3     1  UNL1       -0.2976
      7 N           4.4718    0.3644    0.0000 N.pl3   1  UNL1       -0.3253
      8 C           7.0718   -0.8441    0.0000 C.3     1  UNL1        0.0534
      9 C           5.0218   -1.1506    0.0000 C.3     1  UNL1        0.0367
     10 C           5.8508   -1.7098    0.0000 C.3     1  UNL1        0.0334
     11 C           5.2974   -0.1894    0.0000 C.3     1  UNL1        0.0774
     12 C           7.3307    0.1218    0.0000 C.3     1  UNL1        0.2223
     13 C           6.5940    1.1044    0.0000 C.3     1  UNL1        0.1535
     14 C           8.4708   -1.3530    0.0000 C.3     1  UNL1        0.0720
     15 C           4.2400   -1.7647    0.0000 C.3     1  UNL1       -0.0272
     16 C           4.5808   -2.6985    0.0000 C.3     1  UNL1        0.0001
     17 C           4.0282   -1.1827    0.0000 C.ar    1  UNL1       -0.0168
     18 C           8.0362   -0.5797    0.0000 C.3     1  UNL1       -0.0429
     19 C           8.0892   -3.2072    0.0000 C.3     1  UNL1       -0.0130
     20 C           6.6664   -3.7025    0.0000 C.3     1  UNL1        0.0016
     21 C           3.6890   -0.2483    0.0000 C.ar    1  UNL1        0.0337
     22 C           7.5895    1.0877    0.0000 C.2     1  UNL1        0.3449
     23 C           8.2894    0.3877    0.0000 C.3     1  UNL1       -0.0645
     24 C           3.3742   -1.9855    0.0000 C.ar    1  UNL1       -0.0562
     25 C           4.4352    1.3637    0.0000 C.3     1  UNL1        0.0011
     26 C           2.6724   -0.0519    0.0000 C.ar    1  UNL1       -0.0404
     27 C           2.3533   -1.8127    0.0000 C.ar    1  UNL1       -0.0614
     28 C           6.5940    2.8364    0.0000 C.2     1  UNL1        0.3043
     29 C           2.0000   -0.8394    0.0000 C.ar    1  UNL1       -0.0600
     30 C           8.8142    2.3124    0.0000 C.3     1  UNL1        0.0818
     31 C           6.0940    3.7025    0.0000 C.3     1  UNL1        0.0332
     32 H           5.1574   -2.2014    0.0000 H       1  UNL1        0.0479
     33 H           5.5317    0.6277    0.0000 H       1  UNL1        0.0544
     34 H           7.1115    1.4460    0.0000 H       1  UNL1        0.0777
     35 H           8.8958   -2.0891    0.0000 H       1  UNL1        0.0604
     36 H           3.9104   -1.2395    0.0000 H       1  UNL1        0.0287
     37 H           3.6832   -2.0373    0.0000 H       1  UNL1        0.0287
     38 H           3.9793   -2.8487    0.0000 H       1  UNL1        0.0427
     39 H           4.6669   -3.3125    0.0000 H       1  UNL1        0.0427
     40 H           8.0939   -1.1970    0.0000 H       1  UNL1        0.0270
     41 H           8.6542   -0.6301    0.0000 H       1  UNL1        0.0270
     42 H           8.1853   -3.8197    0.0000 H       1  UNL1        0.0303
     43 H           8.7090   -3.2218    0.0000 H       1  UNL1        0.0303
     44 H           6.1737   -4.0788    0.0000 H       1  UNL1        0.0427
     45 H           6.9602   -4.2484    0.0000 H       1  UNL1        0.0427
     46 H           8.8892    0.2308    0.0000 H       1  UNL1        0.0230
     47 H           8.4464    0.9875    0.0000 H       1  UNL1        0.0230
     48 H           7.6896    0.5447    0.0000 H       1  UNL1        0.0230
     49 H           3.5925   -2.5659    0.0000 H       1  UNL1        0.0621
     50 H           5.0548    1.3864    0.0000 H       1  UNL1        0.0428
     51 H           4.4125    1.9833    0.0000 H       1  UNL1        0.0428
     52 H           3.8156    1.3410    0.0000 H       1  UNL1        0.0428
     53 H           2.4676    0.5333    0.0000 H       1  UNL1        0.0636
     54 H           1.9562   -2.2889    0.0000 H       1  UNL1        0.0618
     55 H           1.3899   -0.7289    0.0000 H       1  UNL1        0.0618
     56 H           9.4131    2.1520    0.0000 H       1  UNL1        0.0661
     57 H           8.9747    2.9113    0.0000 H       1  UNL1        0.0661
     58 H           8.2154    2.4729    0.0000 H       1  UNL1        0.0661
     59 H           6.6310    4.0125    0.0000 H       1  UNL1        0.0342
     60 H           5.7840    4.2394    0.0000 H       1  UNL1        0.0342
     61 H           5.5571    3.3925    0.0000 H       1  UNL1        0.0342
@<TRIPOS>BOND
     1     1    12    1
     2     1    14    1
     3    13     2    1
     4     2    28    1
     5     3    22    1
     6     3    30    1
     7     4    22    2
     8     5    28    2
     9     6    10    1
    10     6    16    1
    11     6    20    1
    12     7    11    1
    13     7    21    1
    14     7    25    1
    15     8    10    1
    16     8    13    1
    17     8    14    1
    18     8    18    1
    19     9    10    1
    20     9    11    1
    21     9    15    1
    22     9    17    1
    23    10    32    1
    24    11    12    1
    25    11    33    1
    26    12    13    1
    27    12    22    1
    28    13    34    1
    29    14    19    1
    30    14    35    1
    31    15    16    1
    32    15    36    1
    33    15    37    1
    34    16    38    1
    35    16    39    1
    36    17    21   ar
    37    17    24   ar
    38    18    23    1
    39    18    40    1
    40    18    41    1
    41    19    20    1
    42    19    42    1
    43    19    43    1
    44    20    44    1
    45    20    45    1
    46    21    26   ar
    47    23    46    1
    48    23    47    1
    49    23    48    1
    50    24    27   ar
    51    24    49    1
    52    25    50    1
    53    25    51    1
    54    25    52    1
    55    26    29   ar
    56    26    53    1
    57    27    29   ar
    58    27    54    1
    59    28    31    1
    60    29    55    1
    61    30    56    1
    62    30    57    1
    63    30    58    1
    64    31    59    1
    65    31    60    1
    66    31    61    1
