@<TRIPOS>MOLECULE
IMPHY013024
 36 36 0 0 0
SMALL
GASTEIGER

@<TRIPOS>ATOM
      1 O           2.8660    4.0000    0.0000 O.3     1  UNL1       -0.4791
      2 OXT         2.0000    2.5000    0.0000 O.2     1  UNL1       -0.2485
      3 O           2.8660   -3.0000    0.0000 O.3     1  UNL1       -0.4504
      4 O           3.7320    4.5000    0.0000 O.2     1  UNL1       -0.2761
      5 O           2.0000   -1.5000    0.0000 O.2     1  UNL1       -0.2261
      6 N           4.5981    3.0000    0.0000 N.am    1  UNL1       -0.2990
      7 N           3.7320   -1.5000    0.0000 N.am    1  UNL1       -0.2512
      8 CA          3.7320    2.5000    0.0000 C.3     1  UNL1        0.1459
      9 C           3.7320    1.5000    0.0000 C.ar    1  UNL1       -0.0164
     10 C           4.5981    1.0000    0.0000 C.ar    1  UNL1       -0.0545
     11 C           2.8660    1.0000    0.0000 C.ar    1  UNL1       -0.0545
     12 C           3.7320   -0.5000    0.0000 C.ar    1  UNL1        0.0365
     13 C           4.5981   -0.0000    0.0000 C.ar    1  UNL1       -0.0400
     14 C           2.8660   -0.0000    0.0000 C.ar    1  UNL1       -0.0400
     15 C           2.8660    3.0000    0.0000 C.2     1  UNL1        0.3298
     16 C           4.5981    4.0000    0.0000 C.2     1  UNL1        0.2108
     17 C           5.4641    4.5000    0.0000 C.3     1  UNL1        0.0122
     18 C           2.8660   -2.0000    0.0000 C.2     1  UNL1        0.4045
     19 C           2.0000   -3.5000    0.0000 C.3     1  UNL1        0.0913
     20 C           2.0000   -4.5000    0.0000 C.3     1  UNL1       -0.0305
     21 HA          3.7320    3.1200    0.0000 H       1  UNL1        0.0666
     22 H           5.1350    1.3100    0.0000 H       1  UNL1        0.0622
     23 H           2.3291    1.3100    0.0000 H       1  UNL1        0.0622
     24 H           5.1350    2.6900    0.0000 H       1  UNL1        0.1498
     25 H           5.1350   -0.3100    0.0000 H       1  UNL1        0.0636
     26 H           2.3291   -0.3100    0.0000 H       1  UNL1        0.0636
     27 H           4.2690   -1.8100    0.0000 H       1  UNL1        0.1582
     28 H           5.7741    3.9631    0.0000 H       1  UNL1        0.0322
     29 H           6.0010    4.8100    0.0000 H       1  UNL1        0.0322
     30 H           5.1541    5.0369    0.0000 H       1  UNL1        0.0322
     31 H           2.3291    4.3100    0.0000 H       1  UNL1        0.2951
     32 H           1.7880   -2.9174    0.0000 H       1  UNL1        0.0695
     33 H           1.3894   -3.6077    0.0000 H       1  UNL1        0.0695
     34 H           1.3800   -4.5000    0.0000 H       1  UNL1        0.0262
     35 H           2.0000   -5.1200    0.0000 H       1  UNL1        0.0262
     36 H           2.6200   -4.5000    0.0000 H       1  UNL1        0.0262
@<TRIPOS>BOND
     1     1    15    1
     2     1    31    1
     3     2    15    2
     4     3    18    1
     5     3    19    1
     6     4    16    2
     7     5    18    2
     8     8     6    1
     9     6    16   am
    10     6    24    1
    11     7    12    1
    12     7    18   am
    13     7    27    1
    14     8     9    1
    15     8    15    1
    16     8    21    1
    17     9    10   ar
    18     9    11   ar
    19    10    13   ar
    20    10    22    1
    21    11    14   ar
    22    11    23    1
    23    12    13   ar
    24    12    14   ar
    25    13    25    1
    26    14    26    1
    27    16    17    1
    28    17    28    1
    29    17    29    1
    30    17    30    1
    31    19    20    1
    32    19    32    1
    33    19    33    1
    34    20    34    1
    35    20    35    1
    36    20    36    1
