@<TRIPOS>MOLECULE
IMPHY014031
 25 27 0 0 0
SMALL
GASTEIGER

@<TRIPOS>ATOM
      1 O           7.3424    0.8997    0.0000 O.2     1  UNL1       -0.4590
      2 O           3.7702    1.1297    0.0000 O.2     1  UNL1       -0.4182
      3 O           5.5301   -1.9050    0.0000 O.3     1  UNL1       -0.4937
      4 O           5.5301    2.0950    0.0000 O.3     1  UNL1       -0.5008
      5 O           2.0000    1.1192    0.0000 O.2     1  UNL1       -0.2452
      6 C           6.3961   -0.4050    0.0000 C.ar    1  UNL1        0.0662
      7 C           4.6641   -0.4050    0.0000 C.ar    1  UNL1        0.0637
      8 C           5.5301   -0.9050    0.0000 C.ar    1  UNL1        0.1417
      9 C           6.3961    0.5950    0.0000 C.ar    1  UNL1        0.1832
     10 C           4.6641    0.5950    0.0000 C.ar    1  UNL1        0.1875
     11 C           5.5301    1.0950    0.0000 C.ar    1  UNL1        0.2038
     12 C           7.3424   -0.7097    0.0000 C.ar    1  UNL1       -0.0125
     13 C           3.7702   -0.9397    0.0000 C.ar    1  UNL1       -0.0406
     14 C           7.9260    0.0950    0.0000 C.ar    1  UNL1        0.0934
     15 C           2.8641   -0.4258    0.0000 C.ar    1  UNL1        0.0237
     16 C           2.8641    0.6158    0.0000 C.ar    1  UNL1        0.3373
     17 C           6.3961   -2.4050    0.0000 C.3     1  UNL1        0.0788
     18 H           7.5350   -1.2990    0.0000 H       1  UNL1        0.0656
     19 H           3.7773   -1.5596    0.0000 H       1  UNL1        0.0628
     20 H           8.5460    0.0950    0.0000 H       1  UNL1        0.1030
     21 H           2.3284   -0.7379    0.0000 H       1  UNL1        0.0689
     22 H           6.0671    2.4050    0.0000 H       1  UNL1        0.2924
     23 H           6.0862   -2.9419    0.0000 H       1  UNL1        0.0660
     24 H           6.9331   -2.7150    0.0000 H       1  UNL1        0.0660
     25 H           6.7062   -1.8681    0.0000 H       1  UNL1        0.0660
@<TRIPOS>BOND
     1     1     9   ar
     2     1    14   ar
     3     2    10   ar
     4     2    16   ar
     5     3     8    1
     6     3    17    1
     7     4    11    1
     8     4    22    1
     9     5    16    2
    10     6     8   ar
    11     6     9   ar
    12     6    12   ar
    13     7     8   ar
    14     7    10   ar
    15     7    13   ar
    16     9    11   ar
    17    10    11   ar
    18    12    14   ar
    19    12    18    1
    20    13    15   ar
    21    13    19    1
    22    14    20    1
    23    15    16   ar
    24    15    21    1
    25    17    23    1
    26    17    24    1
    27    17    25    1
