@<TRIPOS>MOLECULE
IMPHY011565
 96 97 0 0 0
SMALL
GASTEIGER

@<TRIPOS>ATOM
      1 C          15.3467   -4.0160    0.0000 C.3     1  UNL1       -0.0099
      2 C           3.6276    2.8706    0.0000 C.3     1  UNL1       -0.0099
      3 C          15.3467   -5.0160    0.0000 C.3     1  UNL1       -0.0436
      4 C           2.6428    2.6970    0.0000 C.3     1  UNL1       -0.0436
      5 C           2.0000    3.4630    0.0000 C.3     1  UNL1       -0.0486
      6 C          16.2128   -5.5160    0.0000 C.3     1  UNL1       -0.0486
      7 C           3.9696    3.8103    0.0000 C.2     1  UNL1       -0.0427
      8 C          16.2128   -3.5160    0.0000 C.2     1  UNL1       -0.0427
      9 C          17.0788   -5.0160    0.0000 C.3     1  UNL1       -0.0314
     10 C           2.3420    4.4028    0.0000 C.3     1  UNL1       -0.0314
     11 C          17.0788   -4.0160    0.0000 C.2     1  UNL1       -0.0689
     12 C           3.3269    4.5764    0.0000 C.2     1  UNL1       -0.0689
     13 C           3.8013    1.8858    0.0000 C.3     1  UNL1       -0.0558
     14 C           4.5673    2.5286    0.0000 C.3     1  UNL1       -0.0558
     15 C          14.4807   -4.5160    0.0000 C.3     1  UNL1       -0.0558
     16 C          14.8467   -3.1500    0.0000 C.3     1  UNL1       -0.0558
     17 C          16.2128   -2.5160    0.0000 C.2     1  UNL1       -0.0579
     18 C           4.9544    3.9840    0.0000 C.2     1  UNL1       -0.0579
     19 C           3.6688    5.5160    0.0000 C.3     1  UNL1       -0.0432
     20 C          17.9448   -3.5160    0.0000 C.3     1  UNL1       -0.0432
     21 C           5.8205    3.4840    0.0000 C.2     1  UNL1       -0.0586
     22 C          15.3467   -2.0160    0.0000 C.2     1  UNL1       -0.0586
     23 C           5.8205    2.4840    0.0000 C.2     1  UNL1       -0.0504
     24 C          14.4807   -2.5160    0.0000 C.2     1  UNL1       -0.0504
     25 C           5.1776    1.7179    0.0000 C.3     1  UNL1       -0.0397
     26 C          13.9808   -3.3821    0.0000 C.3     1  UNL1       -0.0397
     27 C           6.6865    1.9840    0.0000 C.2     1  UNL1       -0.0588
     28 C          13.6147   -2.0160    0.0000 C.2     1  UNL1       -0.0588
     29 C           7.5525    2.4840    0.0000 C.2     1  UNL1       -0.0613
     30 C          13.6147   -1.0160    0.0000 C.2     1  UNL1       -0.0613
     31 C          12.7487   -0.5160    0.0000 C.2     1  UNL1       -0.0588
     32 C           8.4185    1.9840    0.0000 C.2     1  UNL1       -0.0588
     33 C          11.8826   -1.0160    0.0000 C.2     1  UNL1       -0.0504
     34 C           8.4185    0.9840    0.0000 C.2     1  UNL1       -0.0504
     35 C           7.5525    0.4840    0.0000 C.3     1  UNL1       -0.0397
     36 C          11.8826   -2.0160    0.0000 C.3     1  UNL1       -0.0397
     37 C           9.2846    0.4840    0.0000 C.2     1  UNL1       -0.0588
     38 C          11.0166   -0.5160    0.0000 C.2     1  UNL1       -0.0588
     39 C          11.0166    0.4840    0.0000 C.2     1  UNL1       -0.0615
     40 C          10.1506    0.9840    0.0000 C.2     1  UNL1       -0.0615
     41 H          14.7362   -4.9084    0.0000 H       1  UNL1        0.0274
     42 H          15.1347   -5.5986    0.0000 H       1  UNL1        0.0274
     43 H           2.1059    2.3870    0.0000 H       1  UNL1        0.0274
     44 H           2.8548    2.1143    0.0000 H       1  UNL1        0.0274
     45 H           1.4631    3.7730    0.0000 H       1  UNL1        0.0269
     46 H           1.6015    2.9881    0.0000 H       1  UNL1        0.0269
     47 H          15.8142   -5.9910    0.0000 H       1  UNL1        0.0269
     48 H          16.6113   -5.9910    0.0000 H       1  UNL1        0.0269
     49 H          17.2908   -5.5986    0.0000 H       1  UNL1        0.0310
     50 H          17.6894   -4.9084    0.0000 H       1  UNL1        0.0310
     51 H           2.3420    5.0228    0.0000 H       1  UNL1        0.0310
     52 H           1.7315    4.5104    0.0000 H       1  UNL1        0.0310
     53 H          15.3837   -2.8400    0.0000 H       1  UNL1        0.0238
     54 H          14.5367   -2.6131    0.0000 H       1  UNL1        0.0238
     55 H          14.3098   -3.4600    0.0000 H       1  UNL1        0.0238
     56 H          14.1707   -3.9790    0.0000 H       1  UNL1        0.0238
     57 H          13.9437   -4.8259    0.0000 H       1  UNL1        0.0238
     58 H          14.7906   -5.0529    0.0000 H       1  UNL1        0.0238
     59 H           4.3552    1.9460    0.0000 H       1  UNL1        0.0238
     60 H           5.1499    2.3166    0.0000 H       1  UNL1        0.0238
     61 H           4.7793    3.1112    0.0000 H       1  UNL1        0.0238
     62 H           3.1908    1.7781    0.0000 H       1  UNL1        0.0238
     63 H           3.9090    1.2752    0.0000 H       1  UNL1        0.0238
     64 H           4.4119    1.9935    0.0000 H       1  UNL1        0.0238
     65 H           4.9544    4.6040    0.0000 H       1  UNL1        0.0621
     66 H          16.7497   -2.2060    0.0000 H       1  UNL1        0.0621
     67 H           4.2515    5.3040    0.0000 H       1  UNL1        0.0275
     68 H           3.8809    6.0986    0.0000 H       1  UNL1        0.0275
     69 H           3.0862    5.7281    0.0000 H       1  UNL1        0.0275
     70 H          18.2548   -4.0530    0.0000 H       1  UNL1        0.0275
     71 H          18.4817   -3.2060    0.0000 H       1  UNL1        0.0275
     72 H          17.6348   -2.9791    0.0000 H       1  UNL1        0.0275
     73 H           6.3574    3.7940    0.0000 H       1  UNL1        0.0620
     74 H          15.3467   -1.3960    0.0000 H       1  UNL1        0.0620
     75 H           4.7027    2.1165    0.0000 H       1  UNL1        0.0278
     76 H           4.7791    1.2430    0.0000 H       1  UNL1        0.0278
     77 H           5.6526    1.3194    0.0000 H       1  UNL1        0.0278
     78 H          13.4438   -3.0722    0.0000 H       1  UNL1        0.0278
     79 H          13.6708   -3.9191    0.0000 H       1  UNL1        0.0278
     80 H          14.5178   -3.6921    0.0000 H       1  UNL1        0.0278
     81 H          13.0777   -2.3260    0.0000 H       1  UNL1        0.0620
     82 H           6.6865    1.3640    0.0000 H       1  UNL1        0.0620
     83 H          14.1516   -0.7060    0.0000 H       1  UNL1        0.0618
     84 H           7.5525    3.1040    0.0000 H       1  UNL1        0.0618
     85 H          12.7487    0.1040    0.0000 H       1  UNL1        0.0620
     86 H           8.9555    2.2940    0.0000 H       1  UNL1        0.0620
     87 H          11.2626   -2.0160    0.0000 H       1  UNL1        0.0278
     88 H          11.8826   -2.6360    0.0000 H       1  UNL1        0.0278
     89 H          12.5026   -2.0160    0.0000 H       1  UNL1        0.0278
     90 H           7.2425    1.0209    0.0000 H       1  UNL1        0.0278
     91 H           7.0156    0.1740    0.0000 H       1  UNL1        0.0278
     92 H           7.8625   -0.0530    0.0000 H       1  UNL1        0.0278
     93 H          10.4797   -0.8260    0.0000 H       1  UNL1        0.0620
     94 H           9.2846   -0.1360    0.0000 H       1  UNL1        0.0620
     95 H          10.1506    1.6040    0.0000 H       1  UNL1        0.0618
     96 H          11.5535    0.7940    0.0000 H       1  UNL1        0.0618
@<TRIPOS>BOND
     1     1     3    1
     2     1     8    1
     3     1    15    1
     4     1    16    1
     5     2     4    1
     6     2     7    1
     7     2    13    1
     8     2    14    1
     9     3     6    1
    10     3    41    1
    11     3    42    1
    12     4     5    1
    13     4    43    1
    14     4    44    1
    15     5    10    1
    16     5    45    1
    17     5    46    1
    18     6     9    1
    19     6    47    1
    20     6    48    1
    21     7    12    2
    22     7    18    1
    23     8    11    2
    24     8    17    1
    25     9    11    1
    26     9    49    1
    27     9    50    1
    28    10    12    1
    29    10    51    1
    30    10    52    1
    31    11    20    1
    32    12    19    1
    33    13    62    1
    34    13    63    1
    35    13    64    1
    36    14    59    1
    37    14    60    1
    38    14    61    1
    39    15    56    1
    40    15    57    1
    41    15    58    1
    42    16    53    1
    43    16    54    1
    44    16    55    1
    45    17    22    2
    46    17    66    1
    47    18    21    2
    48    18    65    1
    49    19    67    1
    50    19    68    1
    51    19    69    1
    52    20    70    1
    53    20    71    1
    54    20    72    1
    55    21    23    1
    56    21    73    1
    57    22    24    1
    58    22    74    1
    59    23    25    1
    60    23    27    2
    61    24    26    1
    62    24    28    2
    63    25    75    1
    64    25    76    1
    65    25    77    1
    66    26    78    1
    67    26    79    1
    68    26    80    1
    69    27    29    1
    70    27    82    1
    71    28    30    1
    72    28    81    1
    73    29    32    2
    74    29    84    1
    75    30    31    2
    76    30    83    1
    77    31    33    1
    78    31    85    1
    79    32    34    1
    80    32    86    1
    81    33    36    1
    82    33    38    2
    83    34    35    1
    84    34    37    2
    85    35    90    1
    86    35    91    1
    87    35    92    1
    88    36    87    1
    89    36    88    1
    90    36    89    1
    91    37    40    1
    92    37    94    1
    93    38    39    1
    94    38    93    1
    95    39    40    2
    96    39    96    1
    97    40    95    1
