@<TRIPOS>MOLECULE
IMPHY006328
 83 87 0 0 0
SMALL
GASTEIGER

@<TRIPOS>ATOM
      1 O           2.5357   -2.6896    0.0000 O.3     1  UNL1       -0.3912
      2 C           7.9288   -0.6372    0.0000 C.3     1  UNL1       -0.0233
      3 C           7.0628   -1.1372    0.0000 C.3     1  UNL1       -0.0231
      4 C           7.9288    0.3628    0.0000 C.3     1  UNL1       -0.0315
      5 C           6.1968   -0.6372    0.0000 C.3     1  UNL1       -0.0294
      6 C           8.8228    0.8974    0.0000 C.3     1  UNL1       -0.0292
      7 C           5.2868   -1.1441    0.0000 C.3     1  UNL1       -0.0252
      8 C           9.7288    0.3836    0.0000 C.3     1  UNL1       -0.0287
      9 C           5.2787   -2.1857    0.0000 C.3     1  UNL1       -0.0278
     10 C           8.8228   -1.1719    0.0000 C.3     1  UNL1       -0.0464
     11 C           7.0628    0.8628    0.0000 C.3     1  UNL1       -0.0491
     12 C           6.1968    0.3628    0.0000 C.3     1  UNL1       -0.0489
     13 C           7.0789   -2.1788    0.0000 C.3     1  UNL1       -0.0466
     14 C           9.0329    1.9113    0.0000 C.3     1  UNL1       -0.0351
     15 C           9.7288   -0.6581    0.0000 C.3     1  UNL1       -0.0468
     16 C           6.1808   -2.7065    0.0000 C.3     1  UNL1       -0.0486
     17 C          10.4911    1.0843    0.0000 C.3     1  UNL1       -0.0471
     18 C           4.3433   -2.7354    0.0000 C.3     1  UNL1       -0.0056
     19 C           4.3599   -0.5800    0.0000 C.3     1  UNL1       -0.0447
     20 C           8.2709   -1.5769    0.0000 C.3     1  UNL1       -0.0588
     21 C           7.7056   -1.9033    0.0000 C.3     1  UNL1       -0.0588
     22 C          10.0619    2.0266    0.0000 C.3     1  UNL1       -0.0492
     23 C           5.2945   -0.1441    0.0000 C.3     1  UNL1       -0.0590
     24 C           3.4037   -2.1929    0.0000 C.3     1  UNL1        0.0606
     25 C          10.5987   -0.1097    0.0000 C.3     1  UNL1       -0.0593
     26 C           3.4120   -1.1080    0.0000 C.3     1  UNL1       -0.0258
     27 C           8.3593    2.6505    0.0000 C.3     1  UNL1       -0.0436
     28 C           3.8467   -3.6034    0.0000 C.3     1  UNL1       -0.0572
     29 C           4.8466   -3.5995    0.0000 C.3     1  UNL1       -0.0572
     30 C           8.6626    3.6034    0.0000 C.3     1  UNL1       -0.0624
     31 C           7.3824    2.4367    0.0000 C.3     1  UNL1       -0.0624
     32 H           7.9240    0.9827    0.0000 H       1  UNL1        0.0309
     33 H           6.7337   -0.3272    0.0000 H       1  UNL1        0.0312
     34 H           8.3175    1.2567    0.0000 H       1  UNL1        0.0312
     35 H           5.2811   -2.8057    0.0000 H       1  UNL1        0.0312
     36 H           8.4182   -1.6417    0.0000 H       1  UNL1        0.0271
     37 H           9.2164   -1.6509    0.0000 H       1  UNL1        0.0271
     38 H           7.4613    1.3377    0.0000 H       1  UNL1        0.0268
     39 H           6.6643    1.3377    0.0000 H       1  UNL1        0.0268
     40 H           5.9847    0.9454    0.0000 H       1  UNL1        0.0268
     41 H           5.5862    0.2551    0.0000 H       1  UNL1        0.0268
     42 H           7.2969   -2.7592    0.0000 H       1  UNL1        0.0271
     43 H           7.6880   -2.0632    0.0000 H       1  UNL1        0.0271
     44 H           9.2513    2.4916    0.0000 H       1  UNL1        0.0306
     45 H           9.9379   -1.2418    0.0000 H       1  UNL1        0.0271
     46 H          10.3397   -0.5520    0.0000 H       1  UNL1        0.0271
     47 H           5.7835   -3.1825    0.0000 H       1  UNL1        0.0268
     48 H           6.5818   -3.1794    0.0000 H       1  UNL1        0.0268
     49 H          10.8604    0.5863    0.0000 H       1  UNL1        0.0271
     50 H          11.0252    1.3992    0.0000 H       1  UNL1        0.0271
     51 H           4.7681   -0.1134    0.0000 H       1  UNL1        0.0271
     52 H           3.9700   -0.0980    0.0000 H       1  UNL1        0.0271
     53 H           7.6884   -1.7890    0.0000 H       1  UNL1        0.0235
     54 H           8.4830   -2.1595    0.0000 H       1  UNL1        0.0235
     55 H           8.8535   -1.3648    0.0000 H       1  UNL1        0.0235
     56 H           7.2306   -2.3018    0.0000 H       1  UNL1        0.0235
     57 H           8.1041   -2.3782    0.0000 H       1  UNL1        0.0235
     58 H           8.1805   -1.5048    0.0000 H       1  UNL1        0.0235
     59 H          10.6500    2.2229    0.0000 H       1  UNL1        0.0268
     60 H           9.9285    2.6321    0.0000 H       1  UNL1        0.0268
     61 H           5.9145   -0.1489    0.0000 H       1  UNL1        0.0235
     62 H           5.2993    0.4759    0.0000 H       1  UNL1        0.0235
     63 H           4.6745   -0.1393    0.0000 H       1  UNL1        0.0235
     64 H           3.4025   -2.8129    0.0000 H       1  UNL1        0.0599
     65 H          10.2928   -0.6490    0.0000 H       1  UNL1        0.0235
     66 H          11.1380   -0.4156    0.0000 H       1  UNL1        0.0235
     67 H          10.9045    0.4296    0.0000 H       1  UNL1        0.0235
     68 H           3.2075   -0.5227    0.0000 H       1  UNL1        0.0290
     69 H           2.8004   -1.2093    0.0000 H       1  UNL1        0.0290
     70 H           8.1712    2.0597    0.0000 H       1  UNL1        0.0298
     71 H           3.3085   -3.2954    0.0000 H       1  UNL1        0.0236
     72 H           3.5387   -4.1415    0.0000 H       1  UNL1        0.0236
     73 H           4.3848   -3.9113    0.0000 H       1  UNL1        0.0236
     74 H           4.3109   -3.9116    0.0000 H       1  UNL1        0.0236
     75 H           5.1587   -4.1352    0.0000 H       1  UNL1        0.0236
     76 H           5.3824   -3.2874    0.0000 H       1  UNL1        0.0236
     77 H           9.2534    3.4153    0.0000 H       1  UNL1        0.0232
     78 H           8.8507    4.1941    0.0000 H       1  UNL1        0.0232
     79 H           8.0718    3.7914    0.0000 H       1  UNL1        0.0232
     80 H           7.2499    3.0424    0.0000 H       1  UNL1        0.0232
     81 H           6.7768    2.3042    0.0000 H       1  UNL1        0.0232
     82 H           7.5150    1.8310    0.0000 H       1  UNL1        0.0232
     83 H           2.0000   -2.3775    0.0000 H       1  UNL1        0.2098
@<TRIPOS>BOND
     1     1    24    1
     2     1    83    1
     3     2     3    1
     4     2     4    1
     5     2    10    1
     6     2    20    1
     7     3     5    1
     8     3    13    1
     9     3    21    1
    10     4     6    1
    11     4    11    1
    12     4    32    1
    13     5     7    1
    14     5    12    1
    15     5    33    1
    16     6     8    1
    17     6    14    1
    18     6    34    1
    19     7     9    1
    20     7    19    1
    21     7    23    1
    22     8    15    1
    23     8    17    1
    24     8    25    1
    25     9    16    1
    26     9    18    1
    27     9    35    1
    28    10    15    1
    29    10    36    1
    30    10    37    1
    31    11    12    1
    32    11    38    1
    33    11    39    1
    34    12    40    1
    35    12    41    1
    36    13    16    1
    37    13    42    1
    38    13    43    1
    39    14    22    1
    40    14    27    1
    41    14    44    1
    42    15    45    1
    43    15    46    1
    44    16    47    1
    45    16    48    1
    46    17    22    1
    47    17    49    1
    48    17    50    1
    49    18    24    1
    50    18    28    1
    51    18    29    1
    52    19    26    1
    53    19    51    1
    54    19    52    1
    55    20    53    1
    56    20    54    1
    57    20    55    1
    58    21    56    1
    59    21    57    1
    60    21    58    1
    61    22    59    1
    62    22    60    1
    63    23    61    1
    64    23    62    1
    65    23    63    1
    66    24    26    1
    67    24    64    1
    68    25    65    1
    69    25    66    1
    70    25    67    1
    71    26    68    1
    72    26    69    1
    73    27    30    1
    74    27    31    1
    75    27    70    1
    76    28    71    1
    77    28    72    1
    78    28    73    1
    79    29    74    1
    80    29    75    1
    81    29    76    1
    82    30    77    1
    83    30    78    1
    84    30    79    1
    85    31    80    1
    86    31    81    1
    87    31    82    1
