@<TRIPOS>MOLECULE
IMPHY007503
 42 42 0 0 0
SMALL
GASTEIGER

@<TRIPOS>ATOM
      1 O           5.4641    1.7500    0.0000 O.3     1  UNL1       -0.3915
      2 C           4.5981    2.2500    0.0000 C.3     1  UNL1        0.0578
      3 C           3.7320    1.7500    0.0000 C.3     1  UNL1       -0.0229
      4 C           3.7320    0.7500    0.0000 C.3     1  UNL1       -0.0294
      5 C           2.8660   -0.7500    0.0000 C.2     1  UNL1       -0.0665
      6 C           2.8660    0.2500    0.0000 C.2     1  UNL1       -0.0730
      7 C           4.5981    3.2500    0.0000 C.3     1  UNL1       -0.0206
      8 C           2.0000   -1.2500    0.0000 C.3     1  UNL1       -0.0275
      9 C           3.7320   -1.2500    0.0000 C.3     1  UNL1       -0.0130
     10 C           2.0000   -2.2500    0.0000 C.3     1  UNL1       -0.0283
     11 C           2.8660   -2.7500    0.0000 C.2     1  UNL1       -0.0759
     12 C           3.7320   -2.2500    0.0000 C.2     1  UNL1       -0.0810
     13 C           5.4641    3.7500    0.0000 C.3     1  UNL1       -0.0603
     14 C           3.7320    3.7500    0.0000 C.3     1  UNL1       -0.0603
     15 C           2.0000    0.7500    0.0000 C.3     1  UNL1       -0.0435
     16 C           2.8660   -3.7500    0.0000 C.3     1  UNL1       -0.0438
     17 H           4.5981    1.6300    0.0000 H       1  UNL1        0.0596
     18 H           3.5200    2.3326    0.0000 H       1  UNL1        0.0293
     19 H           3.1215    1.6423    0.0000 H       1  UNL1        0.0293
     20 H           3.9441    0.1674    0.0000 H       1  UNL1        0.0311
     21 H           4.3426    0.8577    0.0000 H       1  UNL1        0.0311
     22 H           4.5981    3.8700    0.0000 H       1  UNL1        0.0320
     23 H           1.7880   -0.6674    0.0000 H       1  UNL1        0.0313
     24 H           1.3894   -1.3577    0.0000 H       1  UNL1        0.0313
     25 H           4.3426   -1.3577    0.0000 H       1  UNL1        0.0352
     26 H           3.9441   -0.6674    0.0000 H       1  UNL1        0.0352
     27 H           1.3894   -2.1423    0.0000 H       1  UNL1        0.0313
     28 H           1.7880   -2.8326    0.0000 H       1  UNL1        0.0313
     29 H           4.2690   -2.5600    0.0000 H       1  UNL1        0.0575
     30 H           5.7741    3.2131    0.0000 H       1  UNL1        0.0233
     31 H           6.0010    4.0600    0.0000 H       1  UNL1        0.0233
     32 H           5.1541    4.2869    0.0000 H       1  UNL1        0.0233
     33 H           4.0420    4.2869    0.0000 H       1  UNL1        0.0233
     34 H           3.1951    4.0600    0.0000 H       1  UNL1        0.0233
     35 H           3.4220    3.2131    0.0000 H       1  UNL1        0.0233
     36 H           2.3100    1.2869    0.0000 H       1  UNL1        0.0274
     37 H           1.4631    1.0600    0.0000 H       1  UNL1        0.0274
     38 H           1.6900    0.2131    0.0000 H       1  UNL1        0.0274
     39 H           6.0010    2.0600    0.0000 H       1  UNL1        0.2098
     40 H           2.2460   -3.7500    0.0000 H       1  UNL1        0.0274
     41 H           2.8660   -4.3700    0.0000 H       1  UNL1        0.0274
     42 H           3.4860   -3.7500    0.0000 H       1  UNL1        0.0274
@<TRIPOS>BOND
     1     1     2    1
     2     1    39    1
     3     2     3    1
     4     2     7    1
     5     2    17    1
     6     3     4    1
     7     3    18    1
     8     3    19    1
     9     4     6    1
    10     4    20    1
    11     4    21    1
    12     5     6    2
    13     5     8    1
    14     5     9    1
    15     6    15    1
    16     7    13    1
    17     7    14    1
    18     7    22    1
    19     8    10    1
    20     8    23    1
    21     8    24    1
    22     9    12    1
    23     9    25    1
    24     9    26    1
    25    10    11    1
    26    10    27    1
    27    10    28    1
    28    11    12    2
    29    11    16    1
    30    12    29    1
    31    13    30    1
    32    13    31    1
    33    13    32    1
    34    14    33    1
    35    14    34    1
    36    14    35    1
    37    15    36    1
    38    15    37    1
    39    15    38    1
    40    16    40    1
    41    16    41    1
    42    16    42    1
