@<TRIPOS>MOLECULE
IMPHY017166
 26 28 0 0 0
SMALL
GASTEIGER

@<TRIPOS>ATOM
      1 C           4.5274    0.6618    0.0000 C.3     1  UNL1        0.0076
      2 C           5.3364    0.0740    0.0000 C.ar    1  UNL1       -0.0325
      3 C           3.7183    0.0740    0.0000 C.ar    1  UNL1       -0.0325
      4 C           5.0274   -0.8771    0.0000 C.ar    1  UNL1       -0.0139
      5 C           4.0274   -0.8771    0.0000 C.ar    1  UNL1       -0.0139
      6 C           4.5274    1.6618    0.0000 C.3     1  UNL1       -0.0543
      7 C           6.3518    0.3063    0.0000 C.ar    1  UNL1       -0.0574
      8 C           2.7029    0.3063    0.0000 C.ar    1  UNL1       -0.0574
      9 C           5.7123   -1.6618    0.0000 C.ar    1  UNL1       -0.0537
     10 C           3.3424   -1.6618    0.0000 C.ar    1  UNL1       -0.0537
     11 C           7.0547   -0.4624    0.0000 C.ar    1  UNL1       -0.0614
     12 C           2.0000   -0.4624    0.0000 C.ar    1  UNL1       -0.0614
     13 C           6.7328   -1.4531    0.0000 C.ar    1  UNL1       -0.0612
     14 C           2.3219   -1.4531    0.0000 C.ar    1  UNL1       -0.0612
     15 H           5.0798    0.9433    0.0000 H       1  UNL1        0.0395
     16 H           5.1474    1.6618    0.0000 H       1  UNL1        0.0239
     17 H           4.5274    2.2818    0.0000 H       1  UNL1        0.0239
     18 H           3.9074    1.6618    0.0000 H       1  UNL1        0.0239
     19 H           6.5365    0.8981    0.0000 H       1  UNL1        0.0621
     20 H           2.5182    0.8981    0.0000 H       1  UNL1        0.0621
     21 H           5.5139   -2.2492    0.0000 H       1  UNL1        0.0624
     22 H           3.5408   -2.2492    0.0000 H       1  UNL1        0.0624
     23 H           7.6607   -0.3312    0.0000 H       1  UNL1        0.0618
     24 H           1.3940   -0.3312    0.0000 H       1  UNL1        0.0618
     25 H           7.1459   -1.9154    0.0000 H       1  UNL1        0.0618
     26 H           1.9088   -1.9154    0.0000 H       1  UNL1        0.0618
@<TRIPOS>BOND
     1     1     2    1
     2     1     3    1
     3     1     6    1
     4     1    15    1
     5     2     4   ar
     6     2     7   ar
     7     3     5   ar
     8     3     8   ar
     9     4     5    1
    10     4     9   ar
    11     5    10   ar
    12     6    16    1
    13     6    17    1
    14     6    18    1
    15     7    11   ar
    16     7    19    1
    17     8    12   ar
    18     8    20    1
    19     9    13   ar
    20     9    21    1
    21    10    14   ar
    22    10    22    1
    23    11    13   ar
    24    11    23    1
    25    12    14   ar
    26    12    24    1
    27    13    25    1
    28    14    26    1
