@<TRIPOS>MOLECULE
IMPHY002683
 51 53 0 0 0
SMALL
GASTEIGER

@<TRIPOS>ATOM
      1 O           5.4641   -0.9050    0.0000 O.3     1  UNL1       -0.3302
      2 O           3.7320   -2.9050    0.0000 O.3     1  UNL1       -0.3864
      3 O           5.4641   -3.9050    0.0000 O.3     1  UNL1       -0.3864
      4 O           7.1962   -0.9050    0.0000 O.3     1  UNL1       -0.4607
      5 O           7.1962   -2.9050    0.0000 O.3     1  UNL1       -0.3829
      6 O           3.7320    0.0950    0.0000 O.3     1  UNL1       -0.4585
      7 O           2.0000    0.0950    0.0000 O.2     1  UNL1       -0.2450
      8 O           8.9282    2.0950    0.0000 O.3     1  UNL1       -0.5063
      9 O           8.0622    3.5950    0.0000 O.3     1  UNL1       -0.3903
     10 C           4.5981   -2.4050    0.0000 C.3     1  UNL1        0.1130
     11 C           5.4641   -2.9050    0.0000 C.3     1  UNL1        0.1152
     12 C           4.5981   -1.4050    0.0000 C.3     1  UNL1        0.1250
     13 C           6.3301   -2.4050    0.0000 C.3     1  UNL1        0.1454
     14 C           6.3301   -1.4050    0.0000 C.3     1  UNL1        0.2308
     15 C           3.7320   -0.9050    0.0000 C.3     1  UNL1        0.1215
     16 C           7.1962    0.0950    0.0000 C.ar    1  UNL1        0.1275
     17 C           8.0622    0.5950    0.0000 C.ar    1  UNL1        0.0220
     18 C           6.3301    0.5950    0.0000 C.ar    1  UNL1       -0.0193
     19 C           2.8660    0.5950    0.0000 C.2     1  UNL1        0.3393
     20 C           8.0622    1.5950    0.0000 C.ar    1  UNL1        0.1257
     21 C           6.3301    1.5950    0.0000 C.ar    1  UNL1       -0.0495
     22 C           7.1962    2.0950    0.0000 C.ar    1  UNL1        0.0194
     23 C           2.8660    1.5950    0.0000 C.ar    1  UNL1        0.0590
     24 C           7.1962    3.0950    0.0000 C.3     1  UNL1        0.0726
     25 C           3.7320    2.0950    0.0000 C.ar    1  UNL1       -0.0478
     26 C           2.0000    2.0950    0.0000 C.ar    1  UNL1       -0.0478
     27 C           3.7320    3.0950    0.0000 C.ar    1  UNL1       -0.0610
     28 C           2.0000    3.0950    0.0000 C.ar    1  UNL1       -0.0610
     29 C           2.8660    3.5950    0.0000 C.ar    1  UNL1       -0.0617
     30 H           4.5981   -3.0250    0.0000 H       1  UNL1        0.0647
     31 H           6.0010   -3.2150    0.0000 H       1  UNL1        0.0648
     32 H           4.5981   -0.7850    0.0000 H       1  UNL1        0.0658
     33 H           6.8671   -2.0950    0.0000 H       1  UNL1        0.0683
     34 H           6.3301   -0.7850    0.0000 H       1  UNL1        0.1084
     35 H           3.1215   -0.7973    0.0000 H       1  UNL1        0.0725
     36 H           3.5200   -1.4876    0.0000 H       1  UNL1        0.0725
     37 H           3.1951   -2.5950    0.0000 H       1  UNL1        0.2100
     38 H           4.9272   -4.2150    0.0000 H       1  UNL1        0.2100
     39 H           7.7331   -2.5950    0.0000 H       1  UNL1        0.2102
     40 H           8.5991    0.2850    0.0000 H       1  UNL1        0.0691
     41 H           5.7932    0.2850    0.0000 H       1  UNL1        0.0654
     42 H           5.7932    1.9050    0.0000 H       1  UNL1        0.0623
     43 H           6.9841    3.6776    0.0000 H       1  UNL1        0.0608
     44 H           6.5856    2.9873    0.0000 H       1  UNL1        0.0608
     45 H           4.2690    1.7850    0.0000 H       1  UNL1        0.0626
     46 H           1.4631    1.7850    0.0000 H       1  UNL1        0.0626
     47 H           9.4651    1.7850    0.0000 H       1  UNL1        0.2921
     48 H           4.2690    3.4050    0.0000 H       1  UNL1        0.0618
     49 H           1.4631    3.4050    0.0000 H       1  UNL1        0.0618
     50 H           2.8660    4.2150    0.0000 H       1  UNL1        0.0618
     51 H           8.0622    4.2150    0.0000 H       1  UNL1        0.2098
@<TRIPOS>BOND
     1     1    12    1
     2     1    14    1
     3     2    10    1
     4     2    37    1
     5     3    11    1
     6     3    38    1
     7     4    14    1
     8     4    16    1
     9     5    13    1
    10     5    39    1
    11     6    15    1
    12     6    19    1
    13     7    19    2
    14     8    20    1
    15     8    47    1
    16     9    24    1
    17     9    51    1
    18    10    11    1
    19    10    12    1
    20    10    30    1
    21    11    13    1
    22    11    31    1
    23    12    15    1
    24    12    32    1
    25    13    14    1
    26    13    33    1
    27    14    34    1
    28    15    35    1
    29    15    36    1
    30    16    17   ar
    31    16    18   ar
    32    17    20   ar
    33    17    40    1
    34    18    21   ar
    35    18    41    1
    36    19    23    1
    37    20    22   ar
    38    21    22   ar
    39    21    42    1
    40    22    24    1
    41    23    25   ar
    42    23    26   ar
    43    24    43    1
    44    24    44    1
    45    25    27   ar
    46    25    45    1
    47    26    28   ar
    48    26    46    1
    49    27    29   ar
    50    27    48    1
    51    28    29   ar
    52    28    49    1
    53    29    50    1
