@<TRIPOS>MOLECULE
IMPHY012980
 53 55 0 0 0
SMALL
GASTEIGER

@<TRIPOS>ATOM
      1 O           4.6321    1.8543    0.0000 O.3     1  UNL1       -0.3423
      2 O           2.5824   -1.4243    0.0000 O.3     1  UNL1       -0.4573
      3 O           2.9637    2.5981    0.0000 O.3     1  UNL1       -0.3642
      4 O           5.7146   -1.4054    0.0000 O.3     1  UNL1       -0.4603
      5 O           2.7970   -3.1876    0.0000 O.2     1  UNL1       -0.2453
      6 O           7.0414   -0.2920    0.0000 O.2     1  UNL1       -0.2505
      7 C           5.3981    1.2115    0.0000 C.3     1  UNL1        0.0736
      8 C           3.6321    1.8543    0.0000 C.3     1  UNL1        0.1706
      9 C           2.8660    1.2115    0.0000 C.3     1  UNL1        0.0135
     10 C           5.2916    2.2052    0.0000 C.3     1  UNL1       -0.0189
     11 C           4.3524    2.5470    0.0000 C.3     1  UNL1        0.0041
     12 C           5.5718    0.2267    0.0000 C.3     1  UNL1        0.0141
     13 C           4.1321   -0.9813    0.0000 C.3     1  UNL1        0.0645
     14 C           5.0718   -0.6393    0.0000 C.3     1  UNL1        0.1160
     15 C           3.1924   -0.6393    0.0000 C.3     1  UNL1        0.1142
     16 C           2.6924    0.2267    0.0000 C.3     1  UNL1       -0.0075
     17 C           6.3882    1.3517    0.0000 C.3     1  UNL1       -0.0356
     18 C           4.0948   -1.9747    0.0000 C.2     1  UNL1        0.0396
     19 C           2.0000    1.7115    0.0000 C.3     1  UNL1       -0.0574
     20 C           3.1390   -2.2479    0.0000 C.2     1  UNL1        0.3354
     21 C           4.8817   -2.5918    0.0000 C.2     1  UNL1       -0.0882
     22 C           6.6994   -1.2317    0.0000 C.2     1  UNL1        0.3099
     23 C           7.3422   -1.9978    0.0000 C.3     1  UNL1        0.0508
     24 C           8.3270   -1.8241    0.0000 C.3     1  UNL1       -0.0525
     25 C           7.0001   -2.9375    0.0000 C.3     1  UNL1       -0.0525
     26 H           2.3041    0.9495    0.0000 H       1  UNL1        0.0351
     27 H           5.9109    2.1772    0.0000 H       1  UNL1        0.0295
     28 H           5.4130    2.8132    0.0000 H       1  UNL1        0.0295
     29 H           4.6502    3.0908    0.0000 H       1  UNL1        0.0318
     30 H           3.8600    2.9237    0.0000 H       1  UNL1        0.0318
     31 H           5.9972   -0.2243    0.0000 H       1  UNL1        0.0329
     32 H           6.1258    0.5050    0.0000 H       1  UNL1        0.0329
     33 H           4.9308   -1.2721    0.0000 H       1  UNL1        0.0423
     34 H           5.6894   -0.5853    0.0000 H       1  UNL1        0.0742
     35 H           2.3936   -0.3486    0.0000 H       1  UNL1        0.0741
     36 H           2.1383    0.5050    0.0000 H       1  UNL1        0.0305
     37 H           2.2669   -0.2243    0.0000 H       1  UNL1        0.0305
     38 H           6.4752    0.7378    0.0000 H       1  UNL1        0.0257
     39 H           7.0021    1.4387    0.0000 H       1  UNL1        0.0257
     40 H           6.3013    1.9656    0.0000 H       1  UNL1        0.0257
     41 H           2.3100    2.2484    0.0000 H       1  UNL1        0.0234
     42 H           1.4631    2.0215    0.0000 H       1  UNL1        0.0234
     43 H           1.6900    1.1746    0.0000 H       1  UNL1        0.0234
     44 H           3.1559    3.1876    0.0000 H       1  UNL1        0.2128
     45 H           4.7944   -3.2056    0.0000 H       1  UNL1        0.0540
     46 H           5.4570   -2.3605    0.0000 H       1  UNL1        0.0540
     47 H           6.7316   -2.1054    0.0000 H       1  UNL1        0.0408
     48 H           8.4346   -2.4347    0.0000 H       1  UNL1        0.0237
     49 H           8.9375   -1.7165    0.0000 H       1  UNL1        0.0237
     50 H           8.2193   -1.2135    0.0000 H       1  UNL1        0.0237
     51 H           6.4175   -2.7254    0.0000 H       1  UNL1        0.0237
     52 H           6.7881   -3.5201    0.0000 H       1  UNL1        0.0237
     53 H           7.5827   -3.1495    0.0000 H       1  UNL1        0.0237
@<TRIPOS>BOND
     1     1     7    1
     2     1     8    1
     3     2    15    1
     4     2    20    1
     5     8     3    1
     6     3    44    1
     7    14     4    1
     8     4    22    1
     9     5    20    2
    10     6    22    2
    11     7    10    1
    12     7    12    1
    13     7    17    1
    14     8     9    1
    15     8    11    1
    16     9    16    1
    17     9    19    1
    18     9    26    1
    19    10    11    1
    20    10    27    1
    21    10    28    1
    22    11    29    1
    23    11    30    1
    24    12    14    1
    25    12    31    1
    26    12    32    1
    27    13    14    1
    28    13    15    1
    29    13    18    1
    30    13    33    1
    31    14    34    1
    32    15    16    1
    33    15    35    1
    34    16    36    1
    35    16    37    1
    36    17    38    1
    37    17    39    1
    38    17    40    1
    39    18    20    1
    40    18    21    2
    41    19    41    1
    42    19    42    1
    43    19    43    1
    44    21    45    1
    45    21    46    1
    46    22    23    1
    47    23    24    1
    48    23    25    1
    49    23    47    1
    50    24    48    1
    51    24    49    1
    52    24    50    1
    53    25    51    1
    54    25    52    1
    55    25    53    1
