@<TRIPOS>MOLECULE
IMPHY001411
 110 114 0 0 0
SMALL
GASTEIGER

@<TRIPOS>ATOM
      1 O          10.8789   -1.0512    0.0000 O.3     1  UNL1       -0.3883
      2 O           9.1130   -2.0890    0.0000 O.3     1  UNL1       -0.3884
      3 O           7.2755   -2.1179    0.0000 O.3     1  UNL1       -0.4536
      4 O          14.4650    4.1246    0.0000 O.3     1  UNL1       -0.3912
      5 O           5.4641   -1.0721    0.0000 O.3     1  UNL1       -0.4538
      6 O           7.8501   -2.5052    0.0000 O.3     1  UNL1       -0.3942
      7 O           5.5435   -2.1246    0.0000 O.2     1  UNL1       -0.2453
      8 O           4.6038    0.4312    0.0000 O.2     1  UNL1       -0.2453
      9 C          10.8572    0.9802    0.0000 C.3     1  UNL1       -0.0169
     10 C          10.8572    1.9802    0.0000 C.3     1  UNL1       -0.0257
     11 C           9.9911    0.4802    0.0000 C.3     1  UNL1        0.0232
     12 C          11.7511    2.5149    0.0000 C.3     1  UNL1       -0.0250
     13 C          12.6572    2.0010    0.0000 C.3     1  UNL1       -0.0278
     14 C          11.7511    0.4456    0.0000 C.3     1  UNL1       -0.0462
     15 C           9.1251    0.9802    0.0000 C.2     1  UNL1       -0.0606
     16 C           8.2151    0.4734    0.0000 C.3     1  UNL1       -0.0050
     17 C           8.2071   -0.5682    0.0000 C.3     1  UNL1        0.0690
     18 C          10.0072   -0.5613    0.0000 C.3     1  UNL1        0.0913
     19 C          12.6572    0.9594    0.0000 C.3     1  UNL1       -0.0486
     20 C          13.6010    2.5363    0.0000 C.3     1  UNL1       -0.0056
     21 C           9.9911    2.4802    0.0000 C.3     1  UNL1       -0.0306
     22 C           9.1092   -1.0890    0.0000 C.3     1  UNL1        0.0936
     23 C          11.7260    3.5996    0.0000 C.3     1  UNL1       -0.0447
     24 C          11.1993    0.0406    0.0000 C.3     1  UNL1       -0.0584
     25 C           9.1251    1.9802    0.0000 C.2     1  UNL1       -0.0836
     26 C           7.2883    1.0375    0.0000 C.3     1  UNL1       -0.0370
     27 C           7.2717   -1.1180    0.0000 C.3     1  UNL1        0.1512
     28 C          10.6339   -0.2858    0.0000 C.3     1  UNL1       -0.0529
     29 C          13.6010    3.6213    0.0000 C.3     1  UNL1        0.0606
     30 C          10.8812    3.0082    0.0000 C.3     1  UNL1       -0.0590
     31 C          12.6572    4.1565    0.0000 C.3     1  UNL1       -0.0258
     32 C           6.3404    0.5095    0.0000 C.3     1  UNL1        0.0063
     33 C           6.3320   -0.5755    0.0000 C.3     1  UNL1        0.1458
     34 C           8.1994   -1.5682    0.0000 C.3     1  UNL1        0.0564
     35 C          14.6009    2.5324    0.0000 C.3     1  UNL1       -0.0572
     36 C          14.0976    1.6683    0.0000 C.3     1  UNL1       -0.0572
     37 C           5.8504    1.3813    0.0000 C.3     1  UNL1       -0.0563
     38 C           5.3404    0.5211    0.0000 C.3     1  UNL1       -0.0563
     39 C           6.4114   -2.6213    0.0000 C.2     1  UNL1        0.3350
     40 C           4.6000   -0.5688    0.0000 C.2     1  UNL1        0.3350
     41 C           6.4153   -3.6213    0.0000 C.2     1  UNL1        0.0293
     42 C           3.7320   -1.0654    0.0000 C.2     1  UNL1        0.0293
     43 C           7.2832   -4.1179    0.0000 C.3     1  UNL1       -0.0333
     44 C           5.5512   -4.1246    0.0000 C.2     1  UNL1       -0.0774
     45 C           3.7282   -2.0654    0.0000 C.3     1  UNL1       -0.0333
     46 C           2.8680   -0.5621    0.0000 C.2     1  UNL1       -0.0774
     47 C           4.6832   -3.6280    0.0000 C.3     1  UNL1       -0.0461
     48 C           2.0000   -1.0588    0.0000 C.3     1  UNL1       -0.0461
     49 H          11.5965    1.5609    0.0000 H       1  UNL1        0.0315
     50 H          13.3916    1.5732    0.0000 H       1  UNL1        0.0312
     51 H          11.3465   -0.0242    0.0000 H       1  UNL1        0.0271
     52 H          12.1447   -0.0335    0.0000 H       1  UNL1        0.0271
     53 H           8.2315    1.3232    0.0000 H       1  UNL1        0.0354
     54 H          10.0132   -1.1813    0.0000 H       1  UNL1        0.0628
     55 H          12.8662    0.3757    0.0000 H       1  UNL1        0.0268
     56 H          13.2680    1.0655    0.0000 H       1  UNL1        0.0268
     57 H          10.3897    2.9552    0.0000 H       1  UNL1        0.0310
     58 H           9.5926    2.9552    0.0000 H       1  UNL1        0.0310
     59 H           9.6479   -1.3959    0.0000 H       1  UNL1        0.0627
     60 H          11.5035    4.1783    0.0000 H       1  UNL1        0.0271
     61 H          11.1178    3.4794    0.0000 H       1  UNL1        0.0271
     62 H          10.6167   -0.1715    0.0000 H       1  UNL1        0.0235
     63 H          11.4114   -0.5420    0.0000 H       1  UNL1        0.0235
     64 H          11.7819    0.2527    0.0000 H       1  UNL1        0.0235
     65 H           8.5882    2.2902    0.0000 H       1  UNL1        0.0572
     66 H           7.6965    1.5041    0.0000 H       1  UNL1        0.0278
     67 H           6.8984    1.5195    0.0000 H       1  UNL1        0.0278
     68 H           6.7353   -1.4290    0.0000 H       1  UNL1        0.0779
     69 H          10.1590   -0.6844    0.0000 H       1  UNL1        0.0239
     70 H          11.0325   -0.7608    0.0000 H       1  UNL1        0.0239
     71 H          11.1089    0.1127    0.0000 H       1  UNL1        0.0239
     72 H          13.5974    4.2413    0.0000 H       1  UNL1        0.0599
     73 H          11.1871    3.5475    0.0000 H       1  UNL1        0.0235
     74 H          10.3419    3.3140    0.0000 H       1  UNL1        0.0235
     75 H          10.5754    2.4689    0.0000 H       1  UNL1        0.0235
     76 H          13.0508    4.6355    0.0000 H       1  UNL1        0.0290
     77 H          12.2526    4.6263    0.0000 H       1  UNL1        0.0290
     78 H           5.7969   -0.2624    0.0000 H       1  UNL1        0.0777
     79 H           8.6470   -1.9971    0.0000 H       1  UNL1        0.0565
     80 H           7.5896   -1.4558    0.0000 H       1  UNL1        0.0565
     81 H          14.5986    1.9124    0.0000 H       1  UNL1        0.0236
     82 H          15.2209    2.5300    0.0000 H       1  UNL1        0.0236
     83 H          14.6033    3.1524    0.0000 H       1  UNL1        0.0236
     84 H          13.5595    1.3604    0.0000 H       1  UNL1        0.0236
     85 H          14.4055    1.1302    0.0000 H       1  UNL1        0.0236
     86 H          14.6357    1.9763    0.0000 H       1  UNL1        0.0236
     87 H          10.8861   -1.6712    0.0000 H       1  UNL1        0.2099
     88 H           9.6511   -2.3970    0.0000 H       1  UNL1        0.2099
     89 H           5.3476    1.1410    0.0000 H       1  UNL1        0.0236
     90 H           4.7205    0.5282    0.0000 H       1  UNL1        0.0236
     91 H           5.3333   -0.0989    0.0000 H       1  UNL1        0.0236
     92 H           6.3909    1.6850    0.0000 H       1  UNL1        0.0236
     93 H           5.5467    1.9217    0.0000 H       1  UNL1        0.0236
     94 H           5.3100    1.0775    0.0000 H       1  UNL1        0.0236
     95 H          14.4627    4.7446    0.0000 H       1  UNL1        0.2098
     96 H           8.2450   -2.9832    0.0000 H       1  UNL1        0.2094
     97 H           6.9753   -4.6560    0.0000 H       1  UNL1        0.0280
     98 H           7.8214   -4.4259    0.0000 H       1  UNL1        0.0280
     99 H           7.5912   -3.5798    0.0000 H       1  UNL1        0.0280
    100 H           5.5536   -4.7446    0.0000 H       1  UNL1        0.0574
    101 H           3.1082   -2.0630    0.0000 H       1  UNL1        0.0280
    102 H           3.7258   -2.6854    0.0000 H       1  UNL1        0.0280
    103 H           4.3482   -2.0678    0.0000 H       1  UNL1        0.0280
    104 H           2.8703    0.0579    0.0000 H       1  UNL1        0.0574
    105 H           4.9912   -3.0898    0.0000 H       1  UNL1        0.0272
    106 H           4.1451   -3.3200    0.0000 H       1  UNL1        0.0272
    107 H           4.3753   -4.1661    0.0000 H       1  UNL1        0.0272
    108 H           1.6921   -0.5206    0.0000 H       1  UNL1        0.0272
    109 H           1.4619   -1.3667    0.0000 H       1  UNL1        0.0272
    110 H           2.3079   -1.5969    0.0000 H       1  UNL1        0.0272
@<TRIPOS>BOND
     1    18     1    1
     2     1    87    1
     3    22     2    1
     4     2    88    1
     5    27     3    1
     6     3    39    1
     7    29     4    1
     8     4    95    1
     9    33     5    1
    10     5    40    1
    11     6    34    1
    12     6    96    1
    13     7    39    2
    14     8    40    2
    15     9    10    1
    16     9    11    1
    17     9    14    1
    18     9    24    1
    19    10    12    1
    20    10    21    1
    21    10    49    1
    22    11    15    1
    23    11    18    1
    24    11    28    1
    25    12    13    1
    26    12    23    1
    27    12    30    1
    28    13    19    1
    29    13    20    1
    30    13    50    1
    31    14    19    1
    32    14    51    1
    33    14    52    1
    34    15    16    1
    35    15    25    2
    36    16    17    1
    37    16    26    1
    38    16    53    1
    39    17    22    1
    40    17    27    1
    41    17    34    1
    42    18    22    1
    43    18    54    1
    44    19    55    1
    45    19    56    1
    46    20    29    1
    47    20    35    1
    48    20    36    1
    49    21    25    1
    50    21    57    1
    51    21    58    1
    52    22    59    1
    53    23    31    1
    54    23    60    1
    55    23    61    1
    56    24    62    1
    57    24    63    1
    58    24    64    1
    59    25    65    1
    60    26    32    1
    61    26    66    1
    62    26    67    1
    63    27    33    1
    64    27    68    1
    65    28    69    1
    66    28    70    1
    67    28    71    1
    68    29    31    1
    69    29    72    1
    70    30    73    1
    71    30    74    1
    72    30    75    1
    73    31    76    1
    74    31    77    1
    75    32    33    1
    76    32    37    1
    77    32    38    1
    78    33    78    1
    79    34    79    1
    80    34    80    1
    81    35    81    1
    82    35    82    1
    83    35    83    1
    84    36    84    1
    85    36    85    1
    86    36    86    1
    87    37    92    1
    88    37    93    1
    89    37    94    1
    90    38    89    1
    91    38    90    1
    92    38    91    1
    93    39    41    1
    94    40    42    1
    95    41    43    1
    96    41    44    2
    97    42    45    1
    98    42    46    2
    99    43    97    1
   100    43    98    1
   101    43    99    1
   102    44    47    1
   103    44   100    1
   104    45   101    1
   105    45   102    1
   106    45   103    1
   107    46    48    1
   108    46   104    1
   109    47   105    1
   110    47   106    1
   111    47   107    1
   112    48   108    1
   113    48   109    1
   114    48   110    1
