@<TRIPOS>MOLECULE
IMPHY006282
 47 49 0 0 0
SMALL
GASTEIGER

@<TRIPOS>ATOM
      1 O           8.0701    1.3033    0.0000 O.2     1  UNL1       -0.4544
      2 O           7.2051   -1.9677    0.0000 O.3     1  UNL1       -0.5060
      3 C           7.5701   -0.2356    0.0000 C.ar    1  UNL1        0.0698
      4 C           8.5701   -0.2356    0.0000 C.ar    1  UNL1        0.0390
      5 C           4.5654    0.3907    0.0000 C.3     1  UNL1       -0.0275
      6 C           5.5427    0.1790    0.0000 C.ar    1  UNL1       -0.0404
      7 C           7.2611    0.7155    0.0000 C.ar    1  UNL1        0.1400
      8 C           4.2600    1.3430    0.0000 C.3     1  UNL1       -0.0491
      9 C           8.8791    0.7155    0.0000 C.ar    1  UNL1        0.1398
     10 C           6.2457    0.9477    0.0000 C.ar    1  UNL1       -0.0153
     11 C           3.2827    1.5546    0.0000 C.3     1  UNL1       -0.0530
     12 C           6.8851   -1.0203    0.0000 C.ar    1  UNL1        0.1285
     13 C           9.2550   -1.0203    0.0000 C.ar    1  UNL1       -0.0112
     14 C           5.8646   -0.8116    0.0000 C.ar    1  UNL1       -0.0162
     15 C           9.8945    0.9477    0.0000 C.ar    1  UNL1       -0.0075
     16 C           2.9773    2.5069    0.0000 C.3     1  UNL1       -0.0559
     17 C          10.2756   -0.8116    0.0000 C.ar    1  UNL1       -0.0533
     18 C          10.5974    0.1790    0.0000 C.ar    1  UNL1       -0.0548
     19 C           8.9350   -1.9677    0.0000 C.2     1  UNL1       -0.0497
     20 C          10.1925    1.9023    0.0000 C.3     1  UNL1       -0.0362
     21 C           2.0000    2.7186    0.0000 C.3     1  UNL1       -0.0653
     22 C           9.5955   -2.7186    0.0000 C.3     1  UNL1       -0.0397
     23 C           7.9546   -2.1643    0.0000 C.2     1  UNL1       -0.0952
     24 H           3.9511    0.3068    0.0000 H       1  UNL1        0.0313
     25 H           4.5414   -0.2288    0.0000 H       1  UNL1        0.0313
     26 H           4.8743    1.4269    0.0000 H       1  UNL1        0.0268
     27 H           4.2840    1.9625    0.0000 H       1  UNL1        0.0268
     28 H           6.0609    1.5396    0.0000 H       1  UNL1        0.0657
     29 H           2.6684    1.4707    0.0000 H       1  UNL1        0.0265
     30 H           3.2587    0.9351    0.0000 H       1  UNL1        0.0265
     31 H           5.4515   -1.2740    0.0000 H       1  UNL1        0.0657
     32 H           3.5916    2.5908    0.0000 H       1  UNL1        0.0263
     33 H           3.0014    3.1264    0.0000 H       1  UNL1        0.0263
     34 H          10.6886   -1.2740    0.0000 H       1  UNL1        0.0624
     35 H          11.2034    0.3103    0.0000 H       1  UNL1        0.0622
     36 H          10.7843    1.7175    0.0000 H       1  UNL1        0.0279
     37 H          10.3773    2.4941    0.0000 H       1  UNL1        0.0279
     38 H           9.6007    2.0870    0.0000 H       1  UNL1        0.0279
     39 H           2.1312    3.3245    0.0000 H       1  UNL1        0.0230
     40 H           1.3940    2.8498    0.0000 H       1  UNL1        0.0230
     41 H           1.8688    2.1126    0.0000 H       1  UNL1        0.0230
     42 H           6.7956   -2.4332    0.0000 H       1  UNL1        0.2922
     43 H           9.1300   -3.1281    0.0000 H       1  UNL1        0.0278
     44 H          10.0050   -3.1841    0.0000 H       1  UNL1        0.0278
     45 H          10.0611   -2.3091    0.0000 H       1  UNL1        0.0278
     46 H           7.5451   -1.6988    0.0000 H       1  UNL1        0.0538
     47 H           7.7562   -2.7517    0.0000 H       1  UNL1        0.0538
@<TRIPOS>BOND
     1     1     7   ar
     2     1     9   ar
     3     2    12    1
     4     2    42    1
     5     3     4   ar
     6     3     7   ar
     7     3    12   ar
     8     4     9   ar
     9     4    13   ar
    10     5     6    1
    11     5     8    1
    12     5    24    1
    13     5    25    1
    14     6    10   ar
    15     6    14   ar
    16     7    10   ar
    17     8    11    1
    18     8    26    1
    19     8    27    1
    20     9    15   ar
    21    10    28    1
    22    11    16    1
    23    11    29    1
    24    11    30    1
    25    12    14   ar
    26    13    17   ar
    27    13    19    1
    28    14    31    1
    29    15    18   ar
    30    15    20    1
    31    16    21    1
    32    16    32    1
    33    16    33    1
    34    17    18   ar
    35    17    34    1
    36    18    35    1
    37    19    22    1
    38    19    23    2
    39    20    36    1
    40    20    37    1
    41    20    38    1
    42    21    39    1
    43    21    40    1
    44    21    41    1
    45    22    43    1
    46    22    44    1
    47    22    45    1
    48    23    46    1
    49    23    47    1
