@<TRIPOS>MOLECULE
IMPHY011964
 26 26 0 0 0
SMALL
GASTEIGER

@<TRIPOS>ATOM
      1 C           2.8660    0.7500    0.0000 C.3     1  UNL1       -0.0200
      2 C           2.8660    1.7500    0.0000 C.3     1  UNL1       -0.0404
      3 C           2.0000    0.2500    0.0000 C.3     1  UNL1       -0.0425
      4 C           2.0000   -0.7500    0.0000 C.3     1  UNL1       -0.0277
      5 C           3.7320    0.2500    0.0000 C.2     1  UNL1       -0.0804
      6 C           3.7320    2.2500    0.0000 C.3     1  UNL1       -0.0621
      7 C           2.0000    2.2500    0.0000 C.3     1  UNL1       -0.0621
      8 C           2.8660   -1.2500    0.0000 C.2     1  UNL1       -0.0547
      9 C           3.7320   -0.7500    0.0000 C.2     1  UNL1       -0.0628
     10 C           2.8660   -2.2500    0.0000 C.2     1  UNL1       -0.0955
     11 H           3.4030    1.0600    0.0000 H       1  UNL1        0.0346
     12 H           2.8660    2.3700    0.0000 H       1  UNL1        0.0301
     13 H           1.7880    0.8326    0.0000 H       1  UNL1        0.0274
     14 H           1.3894    0.1423    0.0000 H       1  UNL1        0.0274
     15 H           1.3894   -0.6423    0.0000 H       1  UNL1        0.0313
     16 H           1.7880   -1.3326    0.0000 H       1  UNL1        0.0313
     17 H           4.2690    0.5600    0.0000 H       1  UNL1        0.0575
     18 H           4.0420    1.7131    0.0000 H       1  UNL1        0.0233
     19 H           4.2690    2.5600    0.0000 H       1  UNL1        0.0233
     20 H           3.4220    2.7869    0.0000 H       1  UNL1        0.0233
     21 H           2.3100    2.7869    0.0000 H       1  UNL1        0.0233
     22 H           1.4631    2.5600    0.0000 H       1  UNL1        0.0233
     23 H           1.6900    1.7131    0.0000 H       1  UNL1        0.0233
     24 H           4.2690   -1.0600    0.0000 H       1  UNL1        0.0617
     25 H           2.3291   -2.5600    0.0000 H       1  UNL1        0.0537
     26 H           3.4030   -2.5600    0.0000 H       1  UNL1        0.0537
@<TRIPOS>BOND
     1     1     2    1
     2     1     3    1
     3     1     5    1
     4     1    11    1
     5     2     6    1
     6     2     7    1
     7     2    12    1
     8     3     4    1
     9     3    13    1
    10     3    14    1
    11     4     8    1
    12     4    15    1
    13     4    16    1
    14     5     9    2
    15     5    17    1
    16     6    18    1
    17     6    19    1
    18     6    20    1
    19     7    21    1
    20     7    22    1
    21     7    23    1
    22     8     9    1
    23     8    10    2
    24     9    24    1
    25    10    25    1
    26    10    26    1
