@<TRIPOS>MOLECULE
IMPHY006886
 146 152 0 0 0
SMALL
GASTEIGER

@<TRIPOS>ATOM
      1 O          10.3312   -3.1599    0.0000 O.3     1  UNL1       -0.3446
      2 O          11.1799    5.9130    0.0000 O.3     1  UNL1       -0.3889
      3 O           8.5538    6.2347    0.0000 O.3     1  UNL1       -0.3866
      4 O          10.8162    7.6064    0.0000 O.3     1  UNL1       -0.3863
      5 O           8.5991   -3.1599    0.0000 O.3     1  UNL1       -0.3405
      6 O           8.4970    8.8799    0.0000 O.3     1  UNL1       -0.3865
      7 O          10.3312   -5.1599    0.0000 O.3     1  UNL1       -0.3841
      8 O           8.5991   -6.1599    0.0000 O.3     1  UNL1       -0.3864
      9 O           6.8671   -5.1599    0.0000 O.3     1  UNL1       -0.3402
     10 O           6.8671   -2.1599    0.0000 O.3     1  UNL1       -0.3460
     11 O           7.7331   -6.6599    0.0000 O.3     1  UNL1       -0.3461
     12 O           5.1350   -2.1599    0.0000 O.3     1  UNL1       -0.3405
     13 O           5.1350   -6.1599    0.0000 O.3     1  UNL1       -0.3841
     14 O           5.1350   -8.1599    0.0000 O.3     1  UNL1       -0.3864
     15 O           6.8671   -0.1599    0.0000 O.3     1  UNL1       -0.3841
     16 O           6.8671   -9.1599    0.0000 O.3     1  UNL1       -0.3869
     17 O           5.1350    0.8401    0.0000 O.3     1  UNL1       -0.3864
     18 O           3.4030   -0.1599    0.0000 O.3     1  UNL1       -0.3865
     19 O           2.5369   -1.6599    0.0000 O.3     1  UNL1       -0.3924
     20 C          11.2284    2.5403    0.0000 C.3     1  UNL1       -0.0228
     21 C          10.3604    3.0369    0.0000 C.3     1  UNL1       -0.0232
     22 C          11.2322    1.5403    0.0000 C.3     1  UNL1       -0.0257
     23 C          10.3681    1.0370    0.0000 C.3     1  UNL1       -0.0219
     24 C          10.5659    4.0096    0.0000 C.3     1  UNL1       -0.0301
     25 C           9.4963    2.5336    0.0000 C.3     1  UNL1       -0.0463
     26 C          11.9628    3.2102    0.0000 C.3     1  UNL1       -0.0466
     27 C           9.5002    1.5336    0.0000 C.3     1  UNL1       -0.0463
     28 C          10.3561   -0.0046    0.0000 C.3     1  UNL1       -0.0136
     29 C          11.5542    4.1164    0.0000 C.3     1  UNL1       -0.0489
     30 C          12.1442    1.0370    0.0000 C.3     1  UNL1       -0.0306
     31 C          12.0963    2.0436    0.0000 C.3     1  UNL1       -0.0588
     32 C           9.4925    3.5336    0.0000 C.3     1  UNL1       -0.0588
     33 C           9.8952    4.7513    0.0000 C.3     1  UNL1       -0.0119
     34 C          11.2562   -0.5289    0.0000 C.2     1  UNL1       -0.0617
     35 C           9.5040    0.5336    0.0000 C.3     1  UNL1       -0.0587
     36 C           9.4062   -0.5289    0.0000 C.3     1  UNL1       -0.0436
     37 C          12.1562   -0.0046    0.0000 C.2     1  UNL1       -0.0836
     38 C          11.2687   -1.6138    0.0000 C.3     1  UNL1        0.0127
     39 C           9.3936   -1.6138    0.0000 C.3     1  UNL1       -0.0251
     40 C          10.3312   -2.1599    0.0000 C.3     1  UNL1        0.0706
     41 C          10.2022    5.7030    0.0000 C.3     1  UNL1        0.0864
     42 C           8.9175    4.5413    0.0000 C.3     1  UNL1       -0.0597
     43 C          12.2687   -1.6061    0.0000 C.3     1  UNL1       -0.0537
     44 C          11.7754   -2.4760    0.0000 C.3     1  UNL1       -0.0537
     45 C           9.5315    6.4447    0.0000 C.3     1  UNL1        0.1097
     46 C           9.8385    7.3964    0.0000 C.3     1  UNL1        0.1115
     47 C           9.4651   -3.6599    0.0000 C.3     1  UNL1        0.1882
     48 C           9.1678    8.1382    0.0000 C.3     1  UNL1        0.0888
     49 C           9.4651   -4.6599    0.0000 C.3     1  UNL1        0.1341
     50 C           8.5991   -5.1599    0.0000 C.3     1  UNL1        0.1144
     51 C           9.9095    8.8088    0.0000 C.3     1  UNL1       -0.0338
     52 C           8.4260    7.4674    0.0000 C.3     1  UNL1       -0.0338
     53 C           7.7331   -3.6599    0.0000 C.3     1  UNL1        0.1137
     54 C           7.7331   -4.6599    0.0000 C.3     1  UNL1        0.1184
     55 C           6.8671   -3.1599    0.0000 C.3     1  UNL1        0.0796
     56 C           6.8671   -6.1599    0.0000 C.3     1  UNL1        0.1880
     57 C           6.0010   -6.6599    0.0000 C.3     1  UNL1        0.1341
     58 C           6.0010   -1.6599    0.0000 C.3     1  UNL1        0.1880
     59 C           6.0010   -7.6599    0.0000 C.3     1  UNL1        0.1137
     60 C           6.0010   -0.6599    0.0000 C.3     1  UNL1        0.1341
     61 C           7.7331   -7.6599    0.0000 C.3     1  UNL1        0.0792
     62 C           6.8671   -8.1599    0.0000 C.3     1  UNL1        0.1069
     63 C           5.1350   -0.1599    0.0000 C.3     1  UNL1        0.1141
     64 C           4.2690   -1.6599    0.0000 C.3     1  UNL1        0.1130
     65 C           4.2690   -0.6599    0.0000 C.3     1  UNL1        0.1119
     66 C           3.4030   -2.1599    0.0000 C.3     1  UNL1        0.0730
     67 H          11.9634    1.9738    0.0000 H       1  UNL1        0.0315
     68 H          10.8685    4.8039    0.0000 H       1  UNL1        0.0310
     69 H           9.2820    3.1154    0.0000 H       1  UNL1        0.0271
     70 H           8.8862    2.4236    0.0000 H       1  UNL1        0.0271
     71 H          12.3302    2.7108    0.0000 H       1  UNL1        0.0271
     72 H          12.4981    3.5230    0.0000 H       1  UNL1        0.0271
     73 H           8.8892    1.6389    0.0000 H       1  UNL1        0.0271
     74 H           9.2904    0.9502    0.0000 H       1  UNL1        0.0271
     75 H          11.0955    0.4147    0.0000 H       1  UNL1        0.0351
     76 H          12.1431    4.3105    0.0000 H       1  UNL1        0.0268
     77 H          11.4231    4.7224    0.0000 H       1  UNL1        0.0268
     78 H          12.7562    0.9379    0.0000 H       1  UNL1        0.0310
     79 H          12.3465    1.6230    0.0000 H       1  UNL1        0.0310
     80 H          11.7884    1.5055    0.0000 H       1  UNL1        0.0235
     81 H          12.6344    1.7357    0.0000 H       1  UNL1        0.0235
     82 H          12.4042    2.5818    0.0000 H       1  UNL1        0.0235
     83 H           9.8004    4.0717    0.0000 H       1  UNL1        0.0235
     84 H           8.9544    3.8415    0.0000 H       1  UNL1        0.0235
     85 H           9.1846    2.9955    0.0000 H       1  UNL1        0.0235
     86 H           9.4793    5.2112    0.0000 H       1  UNL1        0.0327
     87 H           9.1920    1.0694    0.0000 H       1  UNL1        0.0235
     88 H           8.9683    0.2216    0.0000 H       1  UNL1        0.0235
     89 H           9.8161   -0.0021    0.0000 H       1  UNL1        0.0235
     90 H           9.2039    0.0572    0.0000 H       1  UNL1        0.0272
     91 H           8.7941   -0.6279    0.0000 H       1  UNL1        0.0272
     92 H          12.6955   -0.3105    0.0000 H       1  UNL1        0.0572
     93 H           8.7840   -1.5007    0.0000 H       1  UNL1        0.0291
     94 H           9.1778   -2.1950    0.0000 H       1  UNL1        0.0291
     95 H          10.8687   -2.4689    0.0000 H       1  UNL1        0.0605
     96 H          10.3925    6.2930    0.0000 H       1  UNL1        0.0623
     97 H           8.7873    5.1475    0.0000 H       1  UNL1        0.0233
     98 H           8.3113    4.4111    0.0000 H       1  UNL1        0.0233
     99 H           9.0477    3.9351    0.0000 H       1  UNL1        0.0233
    100 H          12.2734   -2.2261    0.0000 H       1  UNL1        0.0239
    101 H          12.8887   -1.6013    0.0000 H       1  UNL1        0.0239
    102 H          12.2639   -0.9861    0.0000 H       1  UNL1        0.0239
    103 H          11.2408   -2.7901    0.0000 H       1  UNL1        0.0239
    104 H          12.0895   -3.0105    0.0000 H       1  UNL1        0.0239
    105 H          12.3099   -2.1618    0.0000 H       1  UNL1        0.0239
    106 H           9.3411    5.8546    0.0000 H       1  UNL1        0.0646
    107 H          11.3702    6.5030    0.0000 H       1  UNL1        0.2099
    108 H          10.2543    6.9366    0.0000 H       1  UNL1        0.0649
    109 H          10.0021   -3.9699    0.0000 H       1  UNL1        0.0937
    110 H           8.1379    6.6946    0.0000 H       1  UNL1        0.2100
    111 H           9.4651   -5.2799    0.0000 H       1  UNL1        0.0671
    112 H          11.0065    8.1965    0.0000 H       1  UNL1        0.2100
    113 H           8.0622   -5.4699    0.0000 H       1  UNL1        0.0648
    114 H           8.0102    7.9273    0.0000 H       1  UNL1        0.0258
    115 H           7.9662    7.0516    0.0000 H       1  UNL1        0.0258
    116 H           8.8419    7.0076    0.0000 H       1  UNL1        0.0258
    117 H          10.3253    8.3490    0.0000 H       1  UNL1        0.0258
    118 H          10.3693    9.2247    0.0000 H       1  UNL1        0.0258
    119 H           9.4936    9.2687    0.0000 H       1  UNL1        0.0258
    120 H           7.7331   -3.0399    0.0000 H       1  UNL1        0.0647
    121 H           7.1962   -4.3499    0.0000 H       1  UNL1        0.0651
    122 H           8.6874    9.4699    0.0000 H       1  UNL1        0.2102
    123 H          10.8681   -4.8499    0.0000 H       1  UNL1        0.2101
    124 H           6.2565   -3.0523    0.0000 H       1  UNL1        0.0587
    125 H           6.6550   -3.7425    0.0000 H       1  UNL1        0.0587
    126 H           9.1360   -6.4699    0.0000 H       1  UNL1        0.2100
    127 H           6.3301   -5.8499    0.0000 H       1  UNL1        0.0937
    128 H           5.4641   -6.9699    0.0000 H       1  UNL1        0.0671
    129 H           6.5380   -1.3499    0.0000 H       1  UNL1        0.0937
    130 H           6.5380   -7.3499    0.0000 H       1  UNL1        0.0647
    131 H           6.0010   -0.0399    0.0000 H       1  UNL1        0.0671
    132 H           7.9451   -8.2425    0.0000 H       1  UNL1        0.0587
    133 H           8.3437   -7.5523    0.0000 H       1  UNL1        0.0587
    134 H           6.3301   -8.4699    0.0000 H       1  UNL1        0.0643
    135 H           4.5981    0.1501    0.0000 H       1  UNL1        0.0648
    136 H           4.5981   -6.4699    0.0000 H       1  UNL1        0.2101
    137 H           4.2690   -2.2799    0.0000 H       1  UNL1        0.0647
    138 H           4.8311   -0.0399    0.0000 H       1  UNL1        0.0647
    139 H           5.1350   -8.7799    0.0000 H       1  UNL1        0.2100
    140 H           6.8671    0.4601    0.0000 H       1  UNL1        0.2101
    141 H           7.4040   -9.4699    0.0000 H       1  UNL1        0.2100
    142 H           3.0044   -2.6349    0.0000 H       1  UNL1        0.0584
    143 H           3.8015   -2.6349    0.0000 H       1  UNL1        0.0584
    144 H           4.5981    1.1501    0.0000 H       1  UNL1        0.2100
    145 H           3.4030    0.4601    0.0000 H       1  UNL1        0.2100
    146 H           2.0000   -1.9699    0.0000 H       1  UNL1        0.2095
@<TRIPOS>BOND
     1    40     1    1
     2    47     1    1
     3     2    41    1
     4     2   107    1
     5    45     3    1
     6     3   110    1
     7    46     4    1
     8     4   112    1
     9     5    47    1
    10     5    53    1
    11     6    48    1
    12     6   122    1
    13     7    49    1
    14     7   123    1
    15     8    50    1
    16     8   126    1
    17    54     9    1
    18    56     9    1
    19    10    55    1
    20    58    10    1
    21    11    56    1
    22    11    61    1
    23    12    58    1
    24    12    64    1
    25    13    57    1
    26    13   136    1
    27    14    59    1
    28    14   139    1
    29    15    60    1
    30    15   140    1
    31    62    16    1
    32    16   141    1
    33    17    63    1
    34    17   144    1
    35    65    18    1
    36    18   145    1
    37    19    66    1
    38    19   146    1
    39    20    21    1
    40    20    22    1
    41    20    26    1
    42    20    31    1
    43    21    24    1
    44    21    25    1
    45    21    32    1
    46    22    23    1
    47    22    30    1
    48    22    67    1
    49    23    27    1
    50    23    28    1
    51    23    35    1
    52    24    29    1
    53    24    33    1
    54    24    68    1
    55    25    27    1
    56    25    69    1
    57    25    70    1
    58    26    29    1
    59    26    71    1
    60    26    72    1
    61    27    73    1
    62    27    74    1
    63    28    34    1
    64    28    36    1
    65    28    75    1
    66    29    76    1
    67    29    77    1
    68    30    37    1
    69    30    78    1
    70    30    79    1
    71    31    80    1
    72    31    81    1
    73    31    82    1
    74    32    83    1
    75    32    84    1
    76    32    85    1
    77    33    41    1
    78    33    42    1
    79    33    86    1
    80    34    37    2
    81    34    38    1
    82    35    87    1
    83    35    88    1
    84    35    89    1
    85    36    39    1
    86    36    90    1
    87    36    91    1
    88    37    92    1
    89    38    40    1
    90    38    43    1
    91    38    44    1
    92    39    40    1
    93    39    93    1
    94    39    94    1
    95    40    95    1
    96    41    45    1
    97    41    96    1
    98    42    97    1
    99    42    98    1
   100    42    99    1
   101    43   100    1
   102    43   101    1
   103    43   102    1
   104    44   103    1
   105    44   104    1
   106    44   105    1
   107    45    46    1
   108    45   106    1
   109    46    48    1
   110    46   108    1
   111    47    49    1
   112    47   109    1
   113    48    51    1
   114    48    52    1
   115    49    50    1
   116    49   111    1
   117    50    54    1
   118    50   113    1
   119    51   117    1
   120    51   118    1
   121    51   119    1
   122    52   114    1
   123    52   115    1
   124    52   116    1
   125    53    54    1
   126    53    55    1
   127    53   120    1
   128    54   121    1
   129    55   124    1
   130    55   125    1
   131    56    57    1
   132    56   127    1
   133    57    59    1
   134    57   128    1
   135    58    60    1
   136    58   129    1
   137    59    62    1
   138    59   130    1
   139    60    63    1
   140    60   131    1
   141    61    62    1
   142    61   132    1
   143    61   133    1
   144    62   134    1
   145    63    65    1
   146    63   135    1
   147    64    65    1
   148    64    66    1
   149    64   137    1
   150    65   138    1
   151    66   142    1
   152    66   143    1
