@<TRIPOS>MOLECULE
IMPHY012881
 46 51 0 0 0
SMALL
GASTEIGER

@<TRIPOS>ATOM
      1 O           3.7017    1.2893    0.0000 O.3     1  UNL1       -0.3473
      2 N           5.8134   -0.2481    0.0000 N.3     1  UNL1       -0.2954
      3 N           2.5900   -0.2481    0.0000 N.pl3   1  UNL1       -0.3156
      4 C           4.2017   -0.2495    0.0000 C.3     1  UNL1        0.0624
      5 C           5.0107    0.3383    0.0000 C.3     1  UNL1        0.0534
      6 C           3.3927    0.3383    0.0000 C.3     1  UNL1        0.1459
      7 C           4.7017    1.2893    0.0000 C.3     1  UNL1        0.0885
      8 C           4.5114   -1.1942    0.0000 C.3     1  UNL1       -0.0247
      9 C           6.4415    1.3767    0.0000 C.3     1  UNL1       -0.0254
     10 C           5.5479    1.8053    0.0000 C.3     1  UNL1       -0.0182
     11 C           4.3967    0.7198    0.0000 C.3     1  UNL1       -0.0056
     12 C           5.5054   -1.1933    0.0000 C.3     1  UNL1        0.0003
     13 C           6.5686    0.3938    0.0000 C.3     1  UNL1        0.0022
     14 C           3.8921   -1.1942    0.0000 C.ar    1  UNL1       -0.0143
     15 C           5.4133    1.0661    0.0000 C.3     1  UNL1       -0.0448
     16 C           4.3927    2.2404    0.0000 C.3     1  UNL1       -0.0250
     17 C           2.8980   -1.1933    0.0000 C.ar    1  UNL1        0.0331
     18 C           4.4228   -2.0833    0.0000 C.ar    1  UNL1       -0.0561
     19 C           5.0618    2.9835    0.0000 C.3     1  UNL1       -0.0626
     20 C           2.3657   -2.0815    0.0000 C.ar    1  UNL1       -0.0405
     21 C           3.9112   -2.9835    0.0000 C.ar    1  UNL1       -0.0614
     22 C           2.8758   -2.9826    0.0000 C.ar    1  UNL1       -0.0600
     23 H           5.2734   -0.4701    0.0000 H       1  UNL1        0.0501
     24 H           3.9052   -1.3243    0.0000 H       1  UNL1        0.0288
     25 H           4.5770   -1.8107    0.0000 H       1  UNL1        0.0288
     26 H           7.2552    1.6225    0.0000 H       1  UNL1        0.0314
     27 H           5.9178    2.3029    0.0000 H       1  UNL1        0.0297
     28 H           5.1300    2.2634    0.0000 H       1  UNL1        0.0297
     29 H           4.5099    1.3294    0.0000 H       1  UNL1        0.0310
     30 H           4.6068    0.1365    0.0000 H       1  UNL1        0.0310
     31 H           5.4408   -1.8099    0.0000 H       1  UNL1        0.0427
     32 H           6.1118   -1.3224    0.0000 H       1  UNL1        0.0427
     33 H           6.8726   -0.1466    0.0000 H       1  UNL1        0.0429
     34 H           7.1570    0.5891    0.0000 H       1  UNL1        0.0429
     35 H           5.5478    1.6713    0.0000 H       1  UNL1        0.0270
     36 H           5.6030    0.4758    0.0000 H       1  UNL1        0.0270
     37 H           2.0000   -0.0576    0.0000 H       1  UNL1        0.1488
     38 H           4.0110    2.7289    0.0000 H       1  UNL1        0.0291
     39 H           3.8453    1.9493    0.0000 H       1  UNL1        0.0291
     40 H           5.0428   -2.0766    0.0000 H       1  UNL1        0.0621
     41 H           5.5226    2.5687    0.0000 H       1  UNL1        0.0231
     42 H           5.4767    3.4443    0.0000 H       1  UNL1        0.0231
     43 H           4.6011    3.3984    0.0000 H       1  UNL1        0.0231
     44 H           1.7458   -2.0738    0.0000 H       1  UNL1        0.0636
     45 H           4.2228   -3.5195    0.0000 H       1  UNL1        0.0618
     46 H           2.5632   -3.5181    0.0000 H       1  UNL1        0.0618
@<TRIPOS>BOND
     1     1     6    1
     2     1     7    1
     3     2     5    1
     4     2    12    1
     5     2    13    1
     6     3     6    1
     7     3    17    1
     8     3    37    1
     9     4     5    1
    10     4     6    1
    11     4     8    1
    12     4    14    1
    13     5     7    1
    14     5    23    1
    15     6    11    1
    16     7    10    1
    17     7    16    1
    18     8    12    1
    19     8    24    1
    20     8    25    1
    21     9    10    1
    22     9    13    1
    23     9    15    1
    24     9    26    1
    25    10    27    1
    26    10    28    1
    27    11    15    1
    28    11    29    1
    29    11    30    1
    30    12    31    1
    31    12    32    1
    32    13    33    1
    33    13    34    1
    34    14    17   ar
    35    14    18   ar
    36    15    35    1
    37    15    36    1
    38    16    19    1
    39    16    38    1
    40    16    39    1
    41    17    20   ar
    42    18    21   ar
    43    18    40    1
    44    19    41    1
    45    19    42    1
    46    19    43    1
    47    20    22   ar
    48    20    44    1
    49    21    22   ar
    50    21    45    1
    51    22    46    1
