@<TRIPOS>MOLECULE
IMPHY002786
 107 112 0 0 0
SMALL
GASTEIGER

@<TRIPOS>ATOM
      1 O          10.5269   -0.8856    0.0000 O.3     1  UNL1       -0.3906
      2 O          15.2370    5.0916    0.0000 O.3     1  UNL1       -0.3912
      3 O           6.2361   -0.1051    0.0000 O.3     1  UNL1       -0.4575
      4 O           8.1015   -1.0945    0.0000 O.3     1  UNL1       -0.4802
      5 O           9.3061   -1.5435    0.0000 O.2     1  UNL1       -0.2503
      6 O           7.0963   -1.6084    0.0000 O.2     1  UNL1       -0.2453
      7 O           3.5805   -2.6881    0.0000 O.3     1  UNL1       -0.3680
      8 C          11.6292    1.9472    0.0000 C.3     1  UNL1       -0.0193
      9 C          11.6292    2.9472    0.0000 C.3     1  UNL1       -0.0257
     10 C          12.5231    3.4819    0.0000 C.3     1  UNL1       -0.0250
     11 C          10.7631    1.4472    0.0000 C.3     1  UNL1       -0.0028
     12 C          13.4292    2.9680    0.0000 C.3     1  UNL1       -0.0278
     13 C          12.5231    1.4126    0.0000 C.3     1  UNL1       -0.0463
     14 C           9.8971    1.9472    0.0000 C.2     1  UNL1       -0.0627
     15 C          13.4292    1.9264    0.0000 C.3     1  UNL1       -0.0486
     16 C          14.3730    3.5033    0.0000 C.3     1  UNL1       -0.0056
     17 C           8.9871    1.4404    0.0000 C.3     1  UNL1       -0.0005
     18 C          10.7792    0.4057    0.0000 C.3     1  UNL1       -0.0162
     19 C          10.7631    3.4472    0.0000 C.3     1  UNL1       -0.0306
     20 C           8.9791    0.3988    0.0000 C.3     1  UNL1        0.1031
     21 C          12.4980    4.5666    0.0000 C.3     1  UNL1       -0.0447
     22 C           9.8812   -0.1220    0.0000 C.3     1  UNL1        0.0724
     23 C          11.9713    1.0076    0.0000 C.3     1  UNL1       -0.0585
     24 C           9.8971    2.9472    0.0000 C.2     1  UNL1       -0.0836
     25 C          14.3730    4.5883    0.0000 C.3     1  UNL1        0.0606
     26 C          11.6532    3.9752    0.0000 C.3     1  UNL1       -0.0590
     27 C          13.4292    5.1235    0.0000 C.3     1  UNL1       -0.0258
     28 C          11.4059    0.6812    0.0000 C.3     1  UNL1       -0.0552
     29 C           8.0603    2.0045    0.0000 C.3     1  UNL1       -0.0368
     30 C           8.0437   -0.1509    0.0000 C.3     1  UNL1        0.0036
     31 C           7.1124    1.4765    0.0000 C.3     1  UNL1        0.0028
     32 C           7.1040    0.3916    0.0000 C.3     1  UNL1        0.1096
     33 C          15.3729    3.4994    0.0000 C.3     1  UNL1       -0.0572
     34 C          14.8696    2.6353    0.0000 C.3     1  UNL1       -0.0572
     35 C           8.9714   -0.6012    0.0000 C.2     1  UNL1        0.3141
     36 C           6.1124    1.4881    0.0000 C.3     1  UNL1       -0.0564
     37 C           6.6224    2.3483    0.0000 C.3     1  UNL1       -0.0564
     38 C           6.2322   -1.1051    0.0000 C.2     1  UNL1        0.3349
     39 C           5.3643   -1.6018    0.0000 C.2     1  UNL1        0.0320
     40 C           4.5002   -1.0984    0.0000 C.3     1  UNL1       -0.0332
     41 C           5.3604   -2.6017    0.0000 C.2     1  UNL1       -0.0456
     42 C           4.4925   -3.0984    0.0000 C.3     1  UNL1        0.0817
     43 C           4.3841   -4.0925    0.0000 C.3     1  UNL1        0.0004
     44 C           3.4052   -4.2966    0.0000 C.2     1  UNL1       -0.0456
     45 C           2.9085   -3.4287    0.0000 C.3     1  UNL1        0.0696
     46 C           2.9949   -5.2086    0.0000 C.2     1  UNL1       -0.0856
     47 C           2.0000   -5.3093    0.0000 C.3     1  UNL1       -0.0465
     48 H          12.3685    2.5279    0.0000 H       1  UNL1        0.0315
     49 H          14.1636    2.5402    0.0000 H       1  UNL1        0.0312
     50 H          12.1185    0.9428    0.0000 H       1  UNL1        0.0271
     51 H          12.9167    0.9336    0.0000 H       1  UNL1        0.0271
     52 H          13.6382    1.3427    0.0000 H       1  UNL1        0.0268
     53 H          14.0400    2.0325    0.0000 H       1  UNL1        0.0268
     54 H           9.0035    2.2902    0.0000 H       1  UNL1        0.0357
     55 H          10.9972   -0.1747    0.0000 H       1  UNL1        0.0299
     56 H          11.3883    0.5212    0.0000 H       1  UNL1        0.0299
     57 H          11.1617    3.9222    0.0000 H       1  UNL1        0.0310
     58 H          10.3646    3.9222    0.0000 H       1  UNL1        0.0310
     59 H          12.2755    5.1453    0.0000 H       1  UNL1        0.0271
     60 H          11.8898    4.4464    0.0000 H       1  UNL1        0.0271
     61 H           9.4835   -0.5977    0.0000 H       1  UNL1        0.0605
     62 H          11.3887    0.7955    0.0000 H       1  UNL1        0.0235
     63 H          12.1834    0.4250    0.0000 H       1  UNL1        0.0235
     64 H          12.5539    1.2197    0.0000 H       1  UNL1        0.0235
     65 H           9.3602    3.2572    0.0000 H       1  UNL1        0.0572
     66 H          14.3694    5.2083    0.0000 H       1  UNL1        0.0599
     67 H          11.9591    4.5145    0.0000 H       1  UNL1        0.0235
     68 H          11.1139    4.2811    0.0000 H       1  UNL1        0.0235
     69 H          11.3474    3.4359    0.0000 H       1  UNL1        0.0235
     70 H          13.8228    5.6025    0.0000 H       1  UNL1        0.0290
     71 H          13.0246    5.5933    0.0000 H       1  UNL1        0.0290
     72 H          10.9310    0.2827    0.0000 H       1  UNL1        0.0238
     73 H          11.8045    0.2062    0.0000 H       1  UNL1        0.0238
     74 H          11.8809    1.0797    0.0000 H       1  UNL1        0.0238
     75 H           8.4685    2.4711    0.0000 H       1  UNL1        0.0278
     76 H           7.6704    2.4865    0.0000 H       1  UNL1        0.0278
     77 H           7.6464   -0.6269    0.0000 H       1  UNL1        0.0313
     78 H           8.4446   -0.6238    0.0000 H       1  UNL1        0.0313
     79 H           7.1028   -0.2284    0.0000 H       1  UNL1        0.0739
     80 H          14.3315    2.3274    0.0000 H       1  UNL1        0.0236
     81 H          15.3706    2.8794    0.0000 H       1  UNL1        0.0236
     82 H          15.9929    3.4970    0.0000 H       1  UNL1        0.0236
     83 H          15.3753    4.1194    0.0000 H       1  UNL1        0.0236
     84 H          15.1775    2.0972    0.0000 H       1  UNL1        0.0236
     85 H          15.4077    2.9433    0.0000 H       1  UNL1        0.0236
     86 H          11.1371   -0.7756    0.0000 H       1  UNL1        0.2098
     87 H           6.1196    2.1080    0.0000 H       1  UNL1        0.0236
     88 H           5.4925    1.4953    0.0000 H       1  UNL1        0.0236
     89 H           6.1053    0.8681    0.0000 H       1  UNL1        0.0236
     90 H           7.1629    2.6520    0.0000 H       1  UNL1        0.0236
     91 H           6.3187    2.8888    0.0000 H       1  UNL1        0.0236
     92 H           6.0820    2.0445    0.0000 H       1  UNL1        0.0236
     93 H          15.2347    5.7116    0.0000 H       1  UNL1        0.2098
     94 H           8.0967   -1.7145    0.0000 H       1  UNL1        0.2951
     95 H           4.8122   -0.5627    0.0000 H       1  UNL1        0.0280
     96 H           3.9644   -0.7863    0.0000 H       1  UNL1        0.0280
     97 H           4.1881   -1.6342    0.0000 H       1  UNL1        0.0280
     98 H           5.8962   -2.9138    0.0000 H       1  UNL1        0.0602
     99 H           4.4624   -2.4791    0.0000 H       1  UNL1        0.0644
    100 H           4.4466   -4.7094    0.0000 H       1  UNL1        0.0339
    101 H           5.0041   -4.0949    0.0000 H       1  UNL1        0.0339
    102 H           2.4954   -2.9664    0.0000 H       1  UNL1        0.0607
    103 H           2.4055   -3.7912    0.0000 H       1  UNL1        0.0607
    104 H           3.3574   -5.7116    0.0000 H       1  UNL1        0.0570
    105 H           1.9376   -4.6925    0.0000 H       1  UNL1        0.0272
    106 H           1.3832   -5.3717    0.0000 H       1  UNL1        0.0272
    107 H           2.0624   -5.9262    0.0000 H       1  UNL1        0.0272
@<TRIPOS>BOND
     1    22     1    1
     2     1    86    1
     3    25     2    1
     4     2    93    1
     5    32     3    1
     6     3    38    1
     7     4    35    1
     8     4    94    1
     9     5    35    2
    10     6    38    2
    11     7    42    1
    12     7    45    1
    13     8     9    1
    14     8    11    1
    15     8    13    1
    16     8    23    1
    17     9    10    1
    18     9    19    1
    19     9    48    1
    20    10    12    1
    21    10    21    1
    22    10    26    1
    23    11    14    1
    24    11    18    1
    25    11    28    1
    26    12    15    1
    27    12    16    1
    28    12    49    1
    29    13    15    1
    30    13    50    1
    31    13    51    1
    32    14    17    1
    33    14    24    2
    34    15    52    1
    35    15    53    1
    36    16    25    1
    37    16    33    1
    38    16    34    1
    39    17    20    1
    40    17    29    1
    41    17    54    1
    42    18    22    1
    43    18    55    1
    44    18    56    1
    45    19    24    1
    46    19    57    1
    47    19    58    1
    48    20    22    1
    49    20    30    1
    50    20    35    1
    51    21    27    1
    52    21    59    1
    53    21    60    1
    54    22    61    1
    55    23    62    1
    56    23    63    1
    57    23    64    1
    58    24    65    1
    59    25    27    1
    60    25    66    1
    61    26    67    1
    62    26    68    1
    63    26    69    1
    64    27    70    1
    65    27    71    1
    66    28    72    1
    67    28    73    1
    68    28    74    1
    69    29    31    1
    70    29    75    1
    71    29    76    1
    72    30    32    1
    73    30    77    1
    74    30    78    1
    75    31    32    1
    76    31    36    1
    77    31    37    1
    78    32    79    1
    79    33    81    1
    80    33    82    1
    81    33    83    1
    82    34    80    1
    83    34    84    1
    84    34    85    1
    85    36    87    1
    86    36    88    1
    87    36    89    1
    88    37    90    1
    89    37    91    1
    90    37    92    1
    91    38    39    1
    92    39    40    1
    93    39    41    2
    94    40    95    1
    95    40    96    1
    96    40    97    1
    97    41    42    1
    98    41    98    1
    99    42    43    1
   100    42    99    1
   101    43    44    1
   102    43   100    1
   103    43   101    1
   104    44    45    1
   105    44    46    2
   106    45   102    1
   107    45   103    1
   108    46    47    1
   109    46   104    1
   110    47   105    1
   111    47   106    1
   112    47   107    1
