@<TRIPOS>MOLECULE
IMPHY014409
 46 47 0 0 0
SMALL
GASTEIGER

@<TRIPOS>ATOM
      1 O           5.4641    1.3450    0.0000 O.3     1  UNL1       -0.4612
      2 O           7.1962    1.3450    0.0000 O.2     1  UNL1       -0.2450
      3 O           4.5981    4.8450    0.0000 O.3     1  UNL1       -0.5032
      4 O           8.0622    4.8450    0.0000 O.3     1  UNL1       -0.5032
      5 O           6.3301    5.8450    0.0000 O.3     1  UNL1       -0.5009
      6 C           3.7320   -1.6550    0.0000 C.3     1  UNL1       -0.0527
      7 C           4.5981   -1.1550    0.0000 C.3     1  UNL1       -0.0500
      8 C           3.7320   -2.6550    0.0000 C.3     1  UNL1       -0.0491
      9 C           4.5981   -0.1550    0.0000 C.3     1  UNL1       -0.0185
     10 C           2.8660   -3.1550    0.0000 C.3     1  UNL1       -0.0277
     11 C           5.4641    0.3450    0.0000 C.3     1  UNL1        0.0928
     12 C           2.8660   -4.1550    0.0000 C.ar    1  UNL1       -0.0474
     13 C           2.0000   -4.6550    0.0000 C.ar    1  UNL1       -0.0586
     14 C           3.7320   -4.6550    0.0000 C.ar    1  UNL1       -0.0586
     15 C           2.0000   -5.6550    0.0000 C.ar    1  UNL1       -0.0615
     16 C           3.7320   -5.6550    0.0000 C.ar    1  UNL1       -0.0615
     17 C           6.3301    1.8450    0.0000 C.2     1  UNL1        0.3394
     18 C           2.8660   -6.1550    0.0000 C.ar    1  UNL1       -0.0617
     19 C           6.3301    2.8450    0.0000 C.ar    1  UNL1        0.0661
     20 C           7.1962    3.3450    0.0000 C.ar    1  UNL1       -0.0023
     21 C           5.4641    3.3450    0.0000 C.ar    1  UNL1       -0.0023
     22 C           5.4641    4.3450    0.0000 C.ar    1  UNL1        0.1628
     23 C           7.1962    4.3450    0.0000 C.ar    1  UNL1        0.1628
     24 C           6.3301    4.8450    0.0000 C.ar    1  UNL1        0.2006
     25 H           3.5200   -1.0724    0.0000 H       1  UNL1        0.0265
     26 H           3.1215   -1.7627    0.0000 H       1  UNL1        0.0265
     27 H           4.8101   -1.7376    0.0000 H       1  UNL1        0.0266
     28 H           5.2087   -1.0473    0.0000 H       1  UNL1        0.0266
     29 H           3.9441   -3.2376    0.0000 H       1  UNL1        0.0268
     30 H           4.3426   -2.5473    0.0000 H       1  UNL1        0.0268
     31 H           4.3860    0.4276    0.0000 H       1  UNL1        0.0298
     32 H           3.9875   -0.2627    0.0000 H       1  UNL1        0.0298
     33 H           2.6540   -2.5724    0.0000 H       1  UNL1        0.0313
     34 H           2.2554   -3.2627    0.0000 H       1  UNL1        0.0313
     35 H           5.6762   -0.2376    0.0000 H       1  UNL1        0.0697
     36 H           6.0747    0.4527    0.0000 H       1  UNL1        0.0697
     37 H           1.4631   -4.3450    0.0000 H       1  UNL1        0.0620
     38 H           4.2690   -4.3450    0.0000 H       1  UNL1        0.0620
     39 H           1.4631   -5.9650    0.0000 H       1  UNL1        0.0618
     40 H           4.2690   -5.9650    0.0000 H       1  UNL1        0.0618
     41 H           2.8660   -6.7750    0.0000 H       1  UNL1        0.0618
     42 H           7.7331    3.0350    0.0000 H       1  UNL1        0.0663
     43 H           4.9272    3.0350    0.0000 H       1  UNL1        0.0663
     44 H           4.0611    4.5350    0.0000 H       1  UNL1        0.2923
     45 H           8.5991    4.5350    0.0000 H       1  UNL1        0.2923
     46 H           6.8671    6.1550    0.0000 H       1  UNL1        0.2924
@<TRIPOS>BOND
     1     1    11    1
     2     1    17    1
     3     2    17    2
     4     3    22    1
     5     3    44    1
     6     4    23    1
     7     4    45    1
     8     5    24    1
     9     5    46    1
    10     6     7    1
    11     6     8    1
    12     6    25    1
    13     6    26    1
    14     7     9    1
    15     7    27    1
    16     7    28    1
    17     8    10    1
    18     8    29    1
    19     8    30    1
    20     9    11    1
    21     9    31    1
    22     9    32    1
    23    10    12    1
    24    10    33    1
    25    10    34    1
    26    11    35    1
    27    11    36    1
    28    12    13   ar
    29    12    14   ar
    30    13    15   ar
    31    13    37    1
    32    14    16   ar
    33    14    38    1
    34    15    18   ar
    35    15    39    1
    36    16    18   ar
    37    16    40    1
    38    17    19    1
    39    18    41    1
    40    19    20   ar
    41    19    21   ar
    42    20    23   ar
    43    20    42    1
    44    21    22   ar
    45    21    43    1
    46    22    24   ar
    47    23    24   ar
