@<TRIPOS>MOLECULE
IMPHY012392
 194 204 0 0 0
SMALL
GASTEIGER

@<TRIPOS>ATOM
      1 O           7.7331   -1.2086    0.0000 O.3     1  UNL1       -0.3449
      2 O           5.9793    8.0708    0.0000 O.3     1  UNL1       -0.4802
      3 O           5.0960    6.5810    0.0000 O.2     1  UNL1       -0.2504
      4 O           6.0010   -1.2086    0.0000 O.3     1  UNL1       -0.3405
      5 O           7.7331   -3.2086    0.0000 O.3     1  UNL1       -0.3378
      6 O           6.0010   -4.2086    0.0000 O.3     1  UNL1       -0.3864
      7 O           4.2690   -3.2086    0.0000 O.3     1  UNL1       -0.3402
      8 O           9.0599   -4.3219    0.0000 O.3     1  UNL1       -0.3401
      9 O           4.2690   -0.2086    0.0000 O.3     1  UNL1       -0.3924
     10 O           5.1350   -4.7086    0.0000 O.3     1  UNL1       -0.3461
     11 O           9.0187   -1.6765    0.0000 O.3     1  UNL1       -0.3841
     12 O          10.9883   -2.0238    0.0000 O.3     1  UNL1       -0.3400
     13 O          11.6723   -3.9032    0.0000 O.3     1  UNL1       -0.3865
     14 O           2.5369   -4.2086    0.0000 O.3     1  UNL1       -0.3841
     15 O          11.3716   -5.6089    0.0000 O.3     1  UNL1       -0.3686
     16 O           2.5369   -6.2086    0.0000 O.3     1  UNL1       -0.3864
     17 O           4.2690   -7.2086    0.0000 O.3     1  UNL1       -0.3869
     18 O           8.7592   -6.0277    0.0000 O.3     1  UNL1       -0.3865
     19 O          12.3151   -3.1372    0.0000 O.3     1  UNL1       -0.3405
     20 O           9.4432   -7.9071    0.0000 O.3     1  UNL1       -0.3865
     21 O          12.2739   -0.4917    0.0000 O.3     1  UNL1       -0.3378
     22 O          11.4128   -8.2544    0.0000 O.3     1  UNL1       -0.3869
     23 O          14.2435   -0.8390    0.0000 O.3     1  UNL1       -0.3864
     24 O          14.9275   -2.7184    0.0000 O.3     1  UNL1       -0.3865
     25 O          13.9014    0.1007    0.0000 O.3     1  UNL1       -0.3431
     26 O          14.6267   -4.4241    0.0000 O.3     1  UNL1       -0.3924
     27 O          11.5898    1.3877    0.0000 O.3     1  UNL1       -0.3841
     28 O          12.8754    2.9198    0.0000 O.3     1  UNL1       -0.3864
     29 O          14.8450    2.5725    0.0000 O.3     1  UNL1       -0.3866
     30 C           6.8320    3.4916    0.0000 C.3     1  UNL1       -0.0194
     31 C           7.6961    2.9883    0.0000 C.3     1  UNL1       -0.0257
     32 C           7.7082    1.9467    0.0000 C.3     1  UNL1       -0.0250
     33 C           6.8359    4.4916    0.0000 C.3     1  UNL1       -0.0051
     34 C           6.8081    1.4224    0.0000 C.3     1  UNL1       -0.0278
     35 C           5.9201    2.9883    0.0000 C.3     1  UNL1       -0.0463
     36 C           6.7956    0.3375    0.0000 C.3     1  UNL1       -0.0052
     37 C           5.9080    1.9467    0.0000 C.3     1  UNL1       -0.0486
     38 C           7.7038    4.9883    0.0000 C.2     1  UNL1       -0.0629
     39 C           8.5641    3.4850    0.0000 C.3     1  UNL1       -0.0306
     40 C           8.6581    1.4224    0.0000 C.3     1  UNL1       -0.0447
     41 C           7.7239    6.0297    0.0000 C.3     1  UNL1       -0.0031
     42 C           5.9278    5.0020    0.0000 C.3     1  UNL1       -0.0424
     43 C           6.8279    6.5609    0.0000 C.3     1  UNL1        0.0741
     44 C           5.8479    3.6691    0.0000 C.3     1  UNL1       -0.0585
     45 C           7.7331   -0.2086    0.0000 C.3     1  UNL1        0.0672
     46 C           5.9238    6.0436    0.0000 C.3     1  UNL1       -0.0359
     47 C           8.5723    2.4501    0.0000 C.3     1  UNL1       -0.0590
     48 C           8.6706    0.3375    0.0000 C.3     1  UNL1       -0.0255
     49 C           8.5679    4.4849    0.0000 C.2     1  UNL1       -0.0836
     50 C           5.8504    4.3218    0.0000 C.3     1  UNL1       -0.0553
     51 C           8.6778    6.5467    0.0000 C.3     1  UNL1       -0.0403
     52 C           6.8237    7.6459    0.0000 C.3     1  UNL1       -0.0362
     53 C           8.6987    7.6315    0.0000 C.3     1  UNL1       -0.0343
     54 C           5.7956    0.3452    0.0000 C.3     1  UNL1       -0.0572
     55 C           6.2889   -0.5246    0.0000 C.3     1  UNL1       -0.0572
     56 C           7.7654    8.1848    0.0000 C.3     1  UNL1       -0.0468
     57 C           5.9677    7.0709    0.0000 C.2     1  UNL1        0.3115
     58 C           9.2120    8.4897    0.0000 C.3     1  UNL1       -0.0598
     59 C           9.6986    7.6160    0.0000 C.3     1  UNL1       -0.0598
     60 C           6.8671   -1.7086    0.0000 C.3     1  UNL1        0.1886
     61 C           6.8671   -2.7086    0.0000 C.3     1  UNL1        0.1406
     62 C           6.0010   -3.2086    0.0000 C.3     1  UNL1        0.1148
     63 C           5.1350   -1.7086    0.0000 C.3     1  UNL1        0.1134
     64 C           5.1350   -2.7086    0.0000 C.3     1  UNL1        0.1184
     65 C           4.2690   -1.2086    0.0000 C.3     1  UNL1        0.0730
     66 C           8.7179   -3.3822    0.0000 C.3     1  UNL1        0.1886
     67 C           9.3607   -2.6162    0.0000 C.3     1  UNL1        0.1345
     68 C           4.2690   -4.2086    0.0000 C.3     1  UNL1        0.1880
     69 C          10.3455   -2.7898    0.0000 C.3     1  UNL1        0.1206
     70 C          10.0447   -4.4956    0.0000 C.3     1  UNL1        0.1186
     71 C          10.6875   -3.7295    0.0000 C.3     1  UNL1        0.1126
     72 C           3.4030   -4.7086    0.0000 C.3     1  UNL1        0.1341
     73 C          10.3867   -5.4353    0.0000 C.3     1  UNL1        0.1157
     74 C           3.4030   -5.7086    0.0000 C.3     1  UNL1        0.1137
     75 C           5.1350   -5.7086    0.0000 C.3     1  UNL1        0.0792
     76 C           4.2690   -6.2086    0.0000 C.3     1  UNL1        0.1069
     77 C           9.7440   -6.2013    0.0000 C.3     1  UNL1        0.1121
     78 C          11.9731   -2.1974    0.0000 C.3     1  UNL1        0.1888
     79 C          10.0860   -7.1410    0.0000 C.3     1  UNL1        0.1115
     80 C          11.7136   -6.5486    0.0000 C.3     1  UNL1        0.0767
     81 C          11.0708   -7.3147    0.0000 C.3     1  UNL1        0.1068
     82 C          12.6159   -1.4314    0.0000 C.3     1  UNL1        0.1406
     83 C          13.6007   -1.6051    0.0000 C.3     1  UNL1        0.1144
     84 C          13.2999   -3.3108    0.0000 C.3     1  UNL1        0.1130
     85 C          13.9427   -2.5448    0.0000 C.3     1  UNL1        0.1119
     86 C          13.6419   -4.2505    0.0000 C.3     1  UNL1        0.0730
     87 C          12.9166    0.2743    0.0000 C.3     1  UNL1        0.1884
     88 C          12.5746    1.2140    0.0000 C.3     1  UNL1        0.1341
     89 C          13.2174    1.9801    0.0000 C.3     1  UNL1        0.1140
     90 C          14.5442    0.8667    0.0000 C.3     1  UNL1        0.0873
     91 C          14.2022    1.8064    0.0000 C.3     1  UNL1        0.1095
     92 C          15.5290    0.6931    0.0000 C.3     1  UNL1       -0.0361
     93 H           8.2342    2.6804    0.0000 H       1  UNL1        0.0315
     94 H           6.2688    1.1166    0.0000 H       1  UNL1        0.0312
     95 H           5.7178    3.5744    0.0000 H       1  UNL1        0.0271
     96 H           5.3080    2.8893    0.0000 H       1  UNL1        0.0271
     97 H           5.2984    2.0599    0.0000 H       1  UNL1        0.0268
     98 H           5.6922    1.3655    0.0000 H       1  UNL1        0.0268
     99 H           8.7739    2.9015    0.0000 H       1  UNL1        0.0310
    100 H           9.1751    3.5903    0.0000 H       1  UNL1        0.0310
    101 H           9.2701    1.3234    0.0000 H       1  UNL1        0.0271
    102 H           8.8604    2.0085    0.0000 H       1  UNL1        0.0271
    103 H           8.2535    5.7074    0.0000 H       1  UNL1        0.0357
    104 H           5.3166    5.1057    0.0000 H       1  UNL1        0.0274
    105 H           5.7210    4.4175    0.0000 H       1  UNL1        0.0274
    106 H           5.9579    4.2792    0.0000 H       1  UNL1        0.0235
    107 H           5.2377    3.7791    0.0000 H       1  UNL1        0.0235
    108 H           5.7379    3.0589    0.0000 H       1  UNL1        0.0235
    109 H           8.2706   -0.5176    0.0000 H       1  UNL1        0.0602
    110 H           5.7125    6.6265    0.0000 H       1  UNL1        0.0276
    111 H           5.3134    5.9351    0.0000 H       1  UNL1        0.0276
    112 H           8.8843    1.9143    0.0000 H       1  UNL1        0.0235
    113 H           9.1080    2.7621    0.0000 H       1  UNL1        0.0235
    114 H           8.2602    2.9858    0.0000 H       1  UNL1        0.0235
    115 H           8.8864   -0.2437    0.0000 H       1  UNL1        0.0290
    116 H           9.2802    0.4507    0.0000 H       1  UNL1        0.0290
    117 H           9.1060    4.7929    0.0000 H       1  UNL1        0.0572
    118 H           5.7451    4.9328    0.0000 H       1  UNL1        0.0238
    119 H           5.2394    4.2165    0.0000 H       1  UNL1        0.0238
    120 H           5.9557    3.7108    0.0000 H       1  UNL1        0.0238
    121 H           8.8756    5.9591    0.0000 H       1  UNL1        0.0276
    122 H           9.2906    6.6410    0.0000 H       1  UNL1        0.0276
    123 H           6.6124    8.2288    0.0000 H       1  UNL1        0.0276
    124 H           6.2133    7.5375    0.0000 H       1  UNL1        0.0276
    125 H           5.8004    0.9652    0.0000 H       1  UNL1        0.0236
    126 H           5.1756    0.3500    0.0000 H       1  UNL1        0.0236
    127 H           5.7908   -0.2748    0.0000 H       1  UNL1        0.0236
    128 H           5.7544   -0.2105    0.0000 H       1  UNL1        0.0236
    129 H           5.9748   -1.0592    0.0000 H       1  UNL1        0.0236
    130 H           6.8234   -0.8388    0.0000 H       1  UNL1        0.0236
    131 H           8.1682    8.6561    0.0000 H       1  UNL1        0.0271
    132 H           7.3700    8.6623    0.0000 H       1  UNL1        0.0271
    133 H           9.7441    8.1714    0.0000 H       1  UNL1        0.0235
    134 H           9.5303    9.0218    0.0000 H       1  UNL1        0.0235
    135 H           8.6799    8.8079    0.0000 H       1  UNL1        0.0235
    136 H           9.6891    6.9961    0.0000 H       1  UNL1        0.0235
    137 H          10.3185    7.6065    0.0000 H       1  UNL1        0.0235
    138 H           9.7082    8.2360    0.0000 H       1  UNL1        0.0235
    139 H           7.4040   -2.0186    0.0000 H       1  UNL1        0.0938
    140 H           5.4460    8.3870    0.0000 H       1  UNL1        0.2951
    141 H           6.8671   -3.3286    0.0000 H       1  UNL1        0.0675
    142 H           5.4641   -3.5186    0.0000 H       1  UNL1        0.0648
    143 H           5.1350   -1.0886    0.0000 H       1  UNL1        0.0647
    144 H           5.1350   -3.3286    0.0000 H       1  UNL1        0.0651
    145 H           3.6584   -1.1009    0.0000 H       1  UNL1        0.0584
    146 H           4.0569   -1.7912    0.0000 H       1  UNL1        0.0584
    147 H           8.3194   -3.8572    0.0000 H       1  UNL1        0.0938
    148 H           6.5380   -4.5186    0.0000 H       1  UNL1        0.2100
    149 H           8.7501   -2.5085    0.0000 H       1  UNL1        0.0671
    150 H           3.7320   -3.8986    0.0000 H       1  UNL1        0.0937
    151 H          10.1334   -2.2072    0.0000 H       1  UNL1        0.0651
    152 H           3.7320    0.1014    0.0000 H       1  UNL1        0.2095
    153 H           9.6462   -4.9705    0.0000 H       1  UNL1        0.0651
    154 H          11.0860   -3.2546    0.0000 H       1  UNL1        0.0647
    155 H           3.9399   -5.0186    0.0000 H       1  UNL1        0.0671
    156 H          10.7853   -4.9603    0.0000 H       1  UNL1        0.0650
    157 H           8.4081   -1.5688    0.0000 H       1  UNL1        0.2101
    158 H           3.4030   -6.3286    0.0000 H       1  UNL1        0.0647
    159 H           5.3471   -6.2912    0.0000 H       1  UNL1        0.0587
    160 H           5.7456   -5.6009    0.0000 H       1  UNL1        0.0587
    161 H           4.8059   -6.5186    0.0000 H       1  UNL1        0.0643
    162 H           9.3454   -6.6763    0.0000 H       1  UNL1        0.0647
    163 H          11.8844   -4.4858    0.0000 H       1  UNL1        0.2100
    164 H           2.0000   -4.5186    0.0000 H       1  UNL1        0.2101
    165 H          11.5746   -2.6724    0.0000 H       1  UNL1        0.0938
    166 H          10.2980   -7.7236    0.0000 H       1  UNL1        0.0647
    167 H           2.5369   -6.8286    0.0000 H       1  UNL1        0.2100
    168 H          12.1121   -7.0236    0.0000 H       1  UNL1        0.0586
    169 H          12.2505   -6.2386    0.0000 H       1  UNL1        0.0586
    170 H          11.6814   -7.4223    0.0000 H       1  UNL1        0.0643
    171 H          13.0144   -0.9565    0.0000 H       1  UNL1        0.0675
    172 H           4.8059   -7.5186    0.0000 H       1  UNL1        0.2100
    173 H           8.3606   -6.5026    0.0000 H       1  UNL1        0.2100
    174 H          14.2113   -1.7127    0.0000 H       1  UNL1        0.0648
    175 H          12.9014   -3.7857    0.0000 H       1  UNL1        0.0647
    176 H          14.1548   -3.1274    0.0000 H       1  UNL1        0.0647
    177 H           9.6552   -8.4897    0.0000 H       1  UNL1        0.2100
    178 H          12.0234   -8.3620    0.0000 H       1  UNL1        0.2100
    179 H          13.0314   -4.3582    0.0000 H       1  UNL1        0.0584
    180 H          13.6419   -4.8705    0.0000 H       1  UNL1        0.0584
    181 H          13.1287   -0.3083    0.0000 H       1  UNL1        0.0938
    182 H          14.8541   -0.9467    0.0000 H       1  UNL1        0.2100
    183 H          15.1396   -3.3010    0.0000 H       1  UNL1        0.2100
    184 H          12.1761    0.7391    0.0000 H       1  UNL1        0.0671
    185 H          12.6068    2.0877    0.0000 H       1  UNL1        0.0648
    186 H          14.8388   -5.0067    0.0000 H       1  UNL1        0.2095
    187 H          14.7563    0.2841    0.0000 H       1  UNL1        0.0621
    188 H          13.9902    2.3890    0.0000 H       1  UNL1        0.0646
    189 H          11.3778    1.9703    0.0000 H       1  UNL1        0.2101
    190 H          15.4214    0.0825    0.0000 H       1  UNL1        0.0255
    191 H          16.1396    0.5854    0.0000 H       1  UNL1        0.0255
    192 H          15.6367    1.3037    0.0000 H       1  UNL1        0.0255
    193 H          13.2739    3.3947    0.0000 H       1  UNL1        0.2100
    194 H          15.4556    2.4648    0.0000 H       1  UNL1        0.2100
@<TRIPOS>BOND
     1     1    45    1
     2     1    60    1
     3     2    57    1
     4     2   140    1
     5     3    57    2
     6     4    60    1
     7     4    63    1
     8     5    61    1
     9     5    66    1
    10     6    62    1
    11     6   148    1
    12     7    64    1
    13     7    68    1
    14     8    66    1
    15     8    70    1
    16     9    65    1
    17     9   152    1
    18    10    68    1
    19    10    75    1
    20    11    67    1
    21    11   157    1
    22    12    69    1
    23    12    78    1
    24    13    71    1
    25    13   163    1
    26    14    72    1
    27    14   164    1
    28    15    73    1
    29    15    80    1
    30    16    74    1
    31    16   167    1
    32    17    76    1
    33    17   172    1
    34    18    77    1
    35    18   173    1
    36    19    78    1
    37    19    84    1
    38    20    79    1
    39    20   177    1
    40    21    82    1
    41    21    87    1
    42    22    81    1
    43    22   178    1
    44    23    83    1
    45    23   182    1
    46    24    85    1
    47    24   183    1
    48    25    87    1
    49    25    90    1
    50    26    86    1
    51    26   186    1
    52    27    88    1
    53    27   189    1
    54    28    89    1
    55    28   193    1
    56    29    91    1
    57    29   194    1
    58    30    31    1
    59    30    33    1
    60    30    35    1
    61    30    44    1
    62    31    32    1
    63    31    39    1
    64    31    93    1
    65    32    34    1
    66    32    40    1
    67    32    47    1
    68    33    38    1
    69    33    42    1
    70    33    50    1
    71    34    36    1
    72    34    37    1
    73    34    94    1
    74    35    37    1
    75    35    95    1
    76    35    96    1
    77    36    45    1
    78    36    54    1
    79    36    55    1
    80    37    97    1
    81    37    98    1
    82    38    41    1
    83    38    49    2
    84    39    49    1
    85    39    99    1
    86    39   100    1
    87    40    48    1
    88    40   101    1
    89    40   102    1
    90    41    43    1
    91    41    51    1
    92    41   103    1
    93    42    46    1
    94    42   104    1
    95    42   105    1
    96    43    46    1
    97    43    52    1
    98    43    57    1
    99    44   106    1
   100    44   107    1
   101    44   108    1
   102    45    48    1
   103    45   109    1
   104    46   110    1
   105    46   111    1
   106    47   112    1
   107    47   113    1
   108    47   114    1
   109    48   115    1
   110    48   116    1
   111    49   117    1
   112    50   118    1
   113    50   119    1
   114    50   120    1
   115    51    53    1
   116    51   121    1
   117    51   122    1
   118    52    56    1
   119    52   123    1
   120    52   124    1
   121    53    56    1
   122    53    58    1
   123    53    59    1
   124    54   125    1
   125    54   126    1
   126    54   127    1
   127    55   128    1
   128    55   129    1
   129    55   130    1
   130    56   131    1
   131    56   132    1
   132    58   133    1
   133    58   134    1
   134    58   135    1
   135    59   136    1
   136    59   137    1
   137    59   138    1
   138    60    61    1
   139    60   139    1
   140    61    62    1
   141    61   141    1
   142    62    64    1
   143    62   142    1
   144    63    64    1
   145    63    65    1
   146    63   143    1
   147    64   144    1
   148    65   145    1
   149    65   146    1
   150    66    67    1
   151    66   147    1
   152    67    69    1
   153    67   149    1
   154    68    72    1
   155    68   150    1
   156    69    71    1
   157    69   151    1
   158    70    71    1
   159    70    73    1
   160    70   153    1
   161    71   154    1
   162    72    74    1
   163    72   155    1
   164    73    77    1
   165    73   156    1
   166    74    76    1
   167    74   158    1
   168    75    76    1
   169    75   159    1
   170    75   160    1
   171    76   161    1
   172    77    79    1
   173    77   162    1
   174    78    82    1
   175    78   165    1
   176    79    81    1
   177    79   166    1
   178    80    81    1
   179    80   168    1
   180    80   169    1
   181    81   170    1
   182    82    83    1
   183    82   171    1
   184    83    85    1
   185    83   174    1
   186    84    85    1
   187    84    86    1
   188    84   175    1
   189    85   176    1
   190    86   179    1
   191    86   180    1
   192    87    88    1
   193    87   181    1
   194    88    89    1
   195    88   184    1
   196    89    91    1
   197    89   185    1
   198    90    91    1
   199    90    92    1
   200    90   187    1
   201    91   188    1
   202    92   190    1
   203    92   191    1
   204    92   192    1
