@<TRIPOS>MOLECULE
IMPHY004720
 54 58 0 0 0
SMALL
GASTEIGER

@<TRIPOS>ATOM
      1 O           6.0427   -0.6444    0.0000 O.3     1  UNL1       -0.4777
      2 O           6.9608    1.9040    0.0000 O.3     1  UNL1       -0.4593
      3 O           4.3107    1.3556    0.0000 O.3     1  UNL1       -0.3727
      4 O           4.5204   -3.7242    0.0000 O.3     1  UNL1       -0.4837
      5 O           7.8129    0.3525    0.0000 O.3     1  UNL1       -0.3550
      6 O           3.3259    0.5292    0.0000 O.2     1  UNL1       -0.2882
      7 O           2.5405   -0.6413    0.0000 O.3     1  UNL1       -0.5058
      8 O           3.3202    3.9925    0.0000 O.3     1  UNL1       -0.4914
      9 O           5.1236    5.0523    0.0000 O.3     1  UNL1       -0.4913
     10 C           5.1767    0.8556    0.0000 C.3     1  UNL1        0.1997
     11 C           6.0427    0.3556    0.0000 C.3     1  UNL1        0.2016
     12 C           5.1606    1.8971    0.0000 C.ar    1  UNL1        0.0407
     13 C           6.9527    0.8624    0.0000 C.3     1  UNL1        0.2401
     14 C           4.3107    0.3556    0.0000 C.2     1  UNL1        0.2100
     15 C           5.1767   -1.1444    0.0000 C.ar    1  UNL1        0.1422
     16 C           4.3107   -0.6444    0.0000 C.ar    1  UNL1        0.1042
     17 C           5.1928   -2.1859    0.0000 C.ar    1  UNL1        0.0406
     18 C           5.9658   -2.8748    0.0000 C.3     1  UNL1        0.0204
     19 C           6.0587    2.4248    0.0000 C.ar    1  UNL1        0.1342
     20 C           5.5511   -3.8236    0.0000 C.3     1  UNL1        0.1249
     21 C           4.2947   -2.7137    0.0000 C.ar    1  UNL1        0.1317
     22 C           3.4007   -1.1513    0.0000 C.ar    1  UNL1        0.1344
     23 C           4.2087    2.4177    0.0000 C.ar    1  UNL1       -0.0063
     24 C           3.3926   -2.1929    0.0000 C.ar    1  UNL1        0.0228
     25 C           6.0670    3.5098    0.0000 C.ar    1  UNL1        0.0259
     26 C           6.0578   -4.6858    0.0000 C.2     1  UNL1       -0.0395
     27 C           4.1920    3.5026    0.0000 C.ar    1  UNL1        0.1621
     28 C           5.1274    4.0523    0.0000 C.ar    1  UNL1        0.1650
     29 C           5.5645   -5.5556    0.0000 C.3     1  UNL1       -0.0406
     30 C           7.0577   -4.6781    0.0000 C.2     1  UNL1       -0.0962
     31 C           3.3087    4.9925    0.0000 C.3     1  UNL1        0.0790
     32 C           5.9876    5.5556    0.0000 C.3     1  UNL1        0.0790
     33 H           6.5772    0.0415    0.0000 H       1  UNL1        0.0835
     34 H           6.9444    0.2425    0.0000 H       1  UNL1        0.1094
     35 H           6.5047   -3.1815    0.0000 H       1  UNL1        0.0355
     36 H           6.3274   -2.3712    0.0000 H       1  UNL1        0.0355
     37 H           5.2177   -4.3464    0.0000 H       1  UNL1        0.0784
     38 H           3.6778    2.0974    0.0000 H       1  UNL1        0.0660
     39 H           3.7281    1.5677    0.0000 H       1  UNL1        0.2114
     40 H           2.8545   -2.5008    0.0000 H       1  UNL1        0.0691
     41 H           6.6052    3.8177    0.0000 H       1  UNL1        0.0692
     42 H           8.3534    0.6562    0.0000 H       1  UNL1        0.2137
     43 H           2.0000   -0.9450    0.0000 H       1  UNL1        0.2922
     44 H           5.0252   -5.2498    0.0000 H       1  UNL1        0.0275
     45 H           5.2586   -6.0950    0.0000 H       1  UNL1        0.0275
     46 H           6.1038   -5.8615    0.0000 H       1  UNL1        0.0275
     47 H           7.3719   -5.2126    0.0000 H       1  UNL1        0.0535
     48 H           7.3636   -4.1388    0.0000 H       1  UNL1        0.0535
     49 H           3.9286    4.9996    0.0000 H       1  UNL1        0.0660
     50 H           3.3015    5.6124    0.0000 H       1  UNL1        0.0660
     51 H           2.6887    4.9853    0.0000 H       1  UNL1        0.0660
     52 H           6.2997    5.0199    0.0000 H       1  UNL1        0.0660
     53 H           6.5234    5.8677    0.0000 H       1  UNL1        0.0660
     54 H           5.6756    6.0914    0.0000 H       1  UNL1        0.0660
@<TRIPOS>BOND
     1     1    11    1
     2     1    15    1
     3     2    13    1
     4     2    19    1
     5     3    10    1
     6     3    39    1
     7     4    20    1
     8     4    21    1
     9     5    13    1
    10     5    42    1
    11     6    14    2
    12     7    22    1
    13     7    43    1
    14     8    27    1
    15     8    31    1
    16     9    28    1
    17     9    32    1
    18    10    11    1
    19    10    12    1
    20    10    14    1
    21    11    13    1
    22    11    33    1
    23    12    19   ar
    24    12    23   ar
    25    13    34    1
    26    14    16    1
    27    15    16   ar
    28    15    17   ar
    29    16    22   ar
    30    17    18    1
    31    17    21   ar
    32    18    20    1
    33    18    35    1
    34    18    36    1
    35    19    25   ar
    36    20    26    1
    37    20    37    1
    38    21    24   ar
    39    22    24   ar
    40    23    27   ar
    41    23    38    1
    42    24    40    1
    43    25    28   ar
    44    25    41    1
    45    26    29    1
    46    26    30    2
    47    27    28   ar
    48    29    44    1
    49    29    45    1
    50    29    46    1
    51    30    47    1
    52    30    48    1
    53    31    49    1
    54    31    50    1
    55    31    51    1
    56    32    52    1
    57    32    53    1
    58    32    54    1
