@<TRIPOS>MOLECULE
IMPHY017843
 40 41 0 0 0
SMALL
GASTEIGER

@<TRIPOS>ATOM
      1 O           5.9641    2.6830    0.0000 O.3     1  UNL1       -0.3650
      2 C           6.4641    1.8170    0.0000 C.3     1  UNL1        0.0907
      3 C           5.4641    1.8170    0.0000 C.3     1  UNL1        0.0912
      4 C           4.5981    1.3170    0.0000 C.3     1  UNL1       -0.0054
      5 C           7.3301    2.3170    0.0000 C.3     1  UNL1       -0.0336
      6 C           6.4641    0.8170    0.0000 C.3     1  UNL1       -0.0336
      7 C           2.8660    0.3170    0.0000 C.3     1  UNL1       -0.0164
      8 C           3.7320    1.8170    0.0000 C.2     1  UNL1       -0.0822
      9 C           2.8660    1.3170    0.0000 C.2     1  UNL1       -0.0731
     10 C           2.0000   -0.1830    0.0000 C.3     1  UNL1       -0.0426
     11 C           3.7320   -0.1830    0.0000 C.3     1  UNL1       -0.0280
     12 C           2.0000   -1.1830    0.0000 C.3     1  UNL1       -0.0315
     13 C           2.8660   -1.6830    0.0000 C.2     1  UNL1       -0.0765
     14 C           3.7320   -1.1830    0.0000 C.2     1  UNL1       -0.0845
     15 C           2.0000    1.8170    0.0000 C.3     1  UNL1       -0.0435
     16 C           2.8660   -2.6830    0.0000 C.3     1  UNL1       -0.0438
     17 H           5.0257    2.2554    0.0000 H       1  UNL1        0.0628
     18 H           4.1996    0.8420    0.0000 H       1  UNL1        0.0333
     19 H           4.9966    0.8420    0.0000 H       1  UNL1        0.0333
     20 H           7.6401    1.7800    0.0000 H       1  UNL1        0.0258
     21 H           7.8671    2.6270    0.0000 H       1  UNL1        0.0258
     22 H           7.0201    2.8539    0.0000 H       1  UNL1        0.0258
     23 H           5.8441    0.8170    0.0000 H       1  UNL1        0.0258
     24 H           6.4641    0.1970    0.0000 H       1  UNL1        0.0258
     25 H           7.0841    0.8170    0.0000 H       1  UNL1        0.0258
     26 H           3.4030    0.6270    0.0000 H       1  UNL1        0.0349
     27 H           3.7320    2.4370    0.0000 H       1  UNL1        0.0572
     28 H           1.7880    0.3996    0.0000 H       1  UNL1        0.0274
     29 H           1.3894   -0.2907    0.0000 H       1  UNL1        0.0274
     30 H           4.3426   -0.2907    0.0000 H       1  UNL1        0.0313
     31 H           3.9441    0.3996    0.0000 H       1  UNL1        0.0313
     32 H           1.3894   -1.0754    0.0000 H       1  UNL1        0.0310
     33 H           1.7880   -1.7656    0.0000 H       1  UNL1        0.0310
     34 H           4.2690   -1.4930    0.0000 H       1  UNL1        0.0572
     35 H           2.3100    2.3539    0.0000 H       1  UNL1        0.0274
     36 H           1.4631    2.1270    0.0000 H       1  UNL1        0.0274
     37 H           1.6900    1.2800    0.0000 H       1  UNL1        0.0274
     38 H           2.2460   -2.6830    0.0000 H       1  UNL1        0.0274
     39 H           2.8660   -3.3030    0.0000 H       1  UNL1        0.0274
     40 H           3.4860   -2.6830    0.0000 H       1  UNL1        0.0274
@<TRIPOS>BOND
     1     1     2    1
     2     1     3    1
     3     2     3    1
     4     2     5    1
     5     2     6    1
     6     3     4    1
     7     3    17    1
     8     4     8    1
     9     4    18    1
    10     4    19    1
    11     5    20    1
    12     5    21    1
    13     5    22    1
    14     6    23    1
    15     6    24    1
    16     6    25    1
    17     7     9    1
    18     7    10    1
    19     7    11    1
    20     7    26    1
    21     8     9    2
    22     8    27    1
    23     9    15    1
    24    10    12    1
    25    10    28    1
    26    10    29    1
    27    11    14    1
    28    11    30    1
    29    11    31    1
    30    12    13    1
    31    12    32    1
    32    12    33    1
    33    13    14    2
    34    13    16    1
    35    14    34    1
    36    15    35    1
    37    15    36    1
    38    15    37    1
    39    16    38    1
    40    16    39    1
    41    16    40    1
