@<TRIPOS>MOLECULE
IMPHY008159
 27 27 0 0 0
SMALL
GASTEIGER

@<TRIPOS>ATOM
      1 O           3.7601   -0.1807    0.0000 O.3     1  UNL1       -0.4611
      2 O           2.0000    0.0981    0.0000 O.2     1  UNL1       -0.2508
      3 C           4.5691    0.4071    0.0000 C.3     1  UNL1        0.1061
      4 C           4.2601    1.3582    0.0000 C.3     1  UNL1        0.0034
      5 C           5.5202    0.0981    0.0000 C.3     1  UNL1       -0.0154
      6 C           3.2601    1.3582    0.0000 C.3     1  UNL1        0.0509
      7 C           5.7281   -0.8800    0.0000 C.3     1  UNL1       -0.0500
      8 C           4.8479    2.1672    0.0000 C.3     1  UNL1       -0.0585
      9 C           2.9511    0.4071    0.0000 C.2     1  UNL1        0.3077
     10 C           6.6791   -1.1890    0.0000 C.3     1  UNL1       -0.0558
     11 C           6.8870   -2.1672    0.0000 C.3     1  UNL1       -0.0653
     12 H           4.7021   -0.4324    0.0000 H       1  UNL1        0.0736
     13 H           5.0996    1.2252    0.0000 H       1  UNL1        0.0339
     14 H           6.1398    0.1197    0.0000 H       1  UNL1        0.0301
     15 H           5.6064    0.7121    0.0000 H       1  UNL1        0.0301
     16 H           3.3249    1.9748    0.0000 H       1  UNL1        0.0381
     17 H           2.6536    1.4871    0.0000 H       1  UNL1        0.0381
     18 H           5.1084   -0.9017    0.0000 H       1  UNL1        0.0266
     19 H           5.6418   -1.4940    0.0000 H       1  UNL1        0.0266
     20 H           5.3494    1.8028    0.0000 H       1  UNL1        0.0234
     21 H           5.2123    2.6688    0.0000 H       1  UNL1        0.0234
     22 H           4.3463    2.5316    0.0000 H       1  UNL1        0.0234
     23 H           7.2987   -1.1674    0.0000 H       1  UNL1        0.0263
     24 H           6.7654   -0.5751    0.0000 H       1  UNL1        0.0263
     25 H           6.2806   -2.2961    0.0000 H       1  UNL1        0.0230
     26 H           7.0159   -2.7736    0.0000 H       1  UNL1        0.0230
     27 H           7.4935   -2.0383    0.0000 H       1  UNL1        0.0230
@<TRIPOS>BOND
     1     1     3    1
     2     1     9    1
     3     2     9    2
     4     3     4    1
     5     3     5    1
     6     3    12    1
     7     4     6    1
     8     4     8    1
     9     4    13    1
    10     5     7    1
    11     5    14    1
    12     5    15    1
    13     6     9    1
    14     6    16    1
    15     6    17    1
    16     7    10    1
    17     7    18    1
    18     7    19    1
    19     8    20    1
    20     8    21    1
    21     8    22    1
    22    10    11    1
    23    10    23    1
    24    10    24    1
    25    11    25    1
    26    11    26    1
    27    11    27    1
