@<TRIPOS>MOLECULE
IMPHY012102
 30 32 0 0 0
SMALL
GASTEIGER

@<TRIPOS>ATOM
      1 N           4.5981   -0.7073    0.0000 N.pl3   1  UNL1       -0.3145
      2 C           7.1962   -0.2073    0.0000 C.ar    1  UNL1       -0.0161
      3 C           7.1962    0.7927    0.0000 C.ar    1  UNL1       -0.0178
      4 C           5.4641   -0.2073    0.0000 C.ar    1  UNL1        0.0319
      5 C           6.3301   -0.7073    0.0000 C.ar    1  UNL1       -0.0328
      6 C           6.3301    1.2927    0.0000 C.ar    1  UNL1       -0.0523
      7 C           5.4641    0.7927    0.0000 C.ar    1  UNL1       -0.0400
      8 C           8.0901   -0.7420    0.0000 C.ar    1  UNL1       -0.0540
      9 C           8.0901    1.3273    0.0000 C.ar    1  UNL1       -0.0540
     10 C           3.7320   -0.2073    0.0000 C.ar    1  UNL1        0.0313
     11 C           8.9962   -0.2281    0.0000 C.ar    1  UNL1       -0.0612
     12 C           8.9962    0.8135    0.0000 C.ar    1  UNL1       -0.0612
     13 C           2.8660   -0.7073    0.0000 C.ar    1  UNL1       -0.0405
     14 C           3.7320    0.7927    0.0000 C.ar    1  UNL1       -0.0405
     15 C           2.0000   -0.2073    0.0000 C.ar    1  UNL1       -0.0600
     16 C           2.8660    1.2927    0.0000 C.ar    1  UNL1       -0.0600
     17 C           2.0000    0.7927    0.0000 C.ar    1  UNL1       -0.0616
     18 H           6.3301   -1.3273    0.0000 H       1  UNL1        0.0642
     19 H           6.3301    1.9127    0.0000 H       1  UNL1        0.0624
     20 H           4.9272    1.1027    0.0000 H       1  UNL1        0.0636
     21 H           4.5981   -1.3273    0.0000 H       1  UNL1        0.1522
     22 H           8.0829   -1.3620    0.0000 H       1  UNL1        0.0624
     23 H           8.0829    1.9473    0.0000 H       1  UNL1        0.0624
     24 H           9.5319   -0.5402    0.0000 H       1  UNL1        0.0618
     25 H           9.5319    1.1256    0.0000 H       1  UNL1        0.0618
     26 H           2.8660   -1.3273    0.0000 H       1  UNL1        0.0636
     27 H           4.2690    1.1027    0.0000 H       1  UNL1        0.0636
     28 H           1.4631   -0.5173    0.0000 H       1  UNL1        0.0618
     29 H           2.8660    1.9127    0.0000 H       1  UNL1        0.0618
     30 H           1.4631    1.1027    0.0000 H       1  UNL1        0.0618
@<TRIPOS>BOND
     1     1     4    1
     2     1    10    1
     3     1    21    1
     4     2     3   ar
     5     2     5   ar
     6     2     8   ar
     7     3     6   ar
     8     3     9   ar
     9     4     5   ar
    10     4     7   ar
    11     5    18    1
    12     6     7   ar
    13     6    19    1
    14     7    20    1
    15     8    11   ar
    16     8    22    1
    17     9    12   ar
    18     9    23    1
    19    10    13   ar
    20    10    14   ar
    21    11    12   ar
    22    11    24    1
    23    12    25    1
    24    13    15   ar
    25    13    26    1
    26    14    16   ar
    27    14    27    1
    28    15    17   ar
    29    15    28    1
    30    16    17   ar
    31    16    29    1
    32    17    30    1
