@<TRIPOS>MOLECULE
IMPHY000219
 79 83 0 0 0
SMALL
GASTEIGER

@<TRIPOS>ATOM
      1 O           6.5469   -2.5724    0.0000 O.2     1  UNL1       -0.2968
      2 C           5.6591   -1.0410    0.0000 C.3     1  UNL1        0.0388
      3 C           4.7931   -0.5410    0.0000 C.3     1  UNL1       -0.0190
      4 C           3.8831   -1.0478    0.0000 C.3     1  UNL1       -0.0243
      5 C           6.5251   -0.5410    0.0000 C.3     1  UNL1        0.0015
      6 C           3.8751   -2.0894    0.0000 C.3     1  UNL1       -0.0235
      7 C           6.5251    0.4590    0.0000 C.2     1  UNL1       -0.0630
      8 C           7.4191    0.9937    0.0000 C.3     1  UNL1       -0.0135
      9 C           8.3252    0.4799    0.0000 C.3     1  UNL1       -0.0255
     10 C           7.4191   -1.0756    0.0000 C.3     1  UNL1       -0.0425
     11 C           2.9396   -2.6391    0.0000 C.3     1  UNL1       -0.0312
     12 C           4.7931    0.4590    0.0000 C.3     1  UNL1       -0.0302
     13 C           4.7771   -2.6102    0.0000 C.3     1  UNL1        0.0102
     14 C           5.6752   -2.0825    0.0000 C.2     1  UNL1        0.1406
     15 C           2.9562   -0.4837    0.0000 C.3     1  UNL1       -0.0470
     16 C           8.3252   -0.5618    0.0000 C.3     1  UNL1       -0.0463
     17 C           5.6591    0.9590    0.0000 C.2     1  UNL1       -0.0836
     18 C           6.3019   -1.8070    0.0000 C.3     1  UNL1       -0.0517
     19 C           7.3940    2.0784    0.0000 C.3     1  UNL1       -0.0408
     20 C           3.8908   -0.0478    0.0000 C.3     1  UNL1       -0.0590
     21 C           6.8672   -1.4806    0.0000 C.3     1  UNL1       -0.0549
     22 C           2.0000   -2.0966    0.0000 C.3     1  UNL1       -0.0476
     23 C           9.2689    1.0151    0.0000 C.3     1  UNL1       -0.0466
     24 C           2.0084   -1.0117    0.0000 C.3     1  UNL1       -0.0521
     25 C           8.3252    2.6353    0.0000 C.3     1  UNL1       -0.0343
     26 C           9.2689    2.1001    0.0000 C.3     1  UNL1       -0.0473
     27 C           9.1950   -0.0135    0.0000 C.3     1  UNL1       -0.0590
     28 C           2.4430   -3.5071    0.0000 C.3     1  UNL1       -0.0595
     29 C           3.4430   -3.5032    0.0000 C.3     1  UNL1       -0.0595
     30 C           8.8151    3.5071    0.0000 C.3     1  UNL1       -0.0598
     31 C           7.8152    3.4955    0.0000 C.3     1  UNL1       -0.0598
     32 H           5.5292   -0.1160    0.0000 H       1  UNL1        0.0319
     33 H           3.8783   -2.9394    0.0000 H       1  UNL1        0.0315
     34 H           8.1486    1.4300    0.0000 H       1  UNL1        0.0351
     35 H           7.0145   -1.5454    0.0000 H       1  UNL1        0.0274
     36 H           7.8127   -1.5546    0.0000 H       1  UNL1        0.0274
     37 H           4.5810    1.0416    0.0000 H       1  UNL1        0.0311
     38 H           4.1825    0.3514    0.0000 H       1  UNL1        0.0311
     39 H           4.3798   -3.0862    0.0000 H       1  UNL1        0.0345
     40 H           5.1781   -3.0831    0.0000 H       1  UNL1        0.0345
     41 H           3.3645   -0.0171    0.0000 H       1  UNL1        0.0271
     42 H           2.5663   -0.0017    0.0000 H       1  UNL1        0.0271
     43 H           8.5342   -1.1455    0.0000 H       1  UNL1        0.0271
     44 H           8.9360   -0.4557    0.0000 H       1  UNL1        0.0271
     45 H           5.6591    1.5790    0.0000 H       1  UNL1        0.0572
     46 H           5.8270   -2.2055    0.0000 H       1  UNL1        0.0239
     47 H           6.7004   -2.2820    0.0000 H       1  UNL1        0.0239
     48 H           6.7768   -1.4085    0.0000 H       1  UNL1        0.0239
     49 H           7.1715    2.6571    0.0000 H       1  UNL1        0.0276
     50 H           6.7858    1.9582    0.0000 H       1  UNL1        0.0276
     51 H           4.5108   -0.0526    0.0000 H       1  UNL1        0.0235
     52 H           3.8956    0.5721    0.0000 H       1  UNL1        0.0235
     53 H           3.2708   -0.0431    0.0000 H       1  UNL1        0.0235
     54 H           6.2847   -1.6927    0.0000 H       1  UNL1        0.0238
     55 H           7.0794   -2.0632    0.0000 H       1  UNL1        0.0238
     56 H           7.4498   -1.2685    0.0000 H       1  UNL1        0.0238
     57 H           1.3900   -1.9858    0.0000 H       1  UNL1        0.0271
     58 H           1.7864   -2.6787    0.0000 H       1  UNL1        0.0271
     59 H           9.4780    0.4314    0.0000 H       1  UNL1        0.0271
     60 H           9.8798    1.1212    0.0000 H       1  UNL1        0.0271
     61 H           1.8038   -0.4264    0.0000 H       1  UNL1        0.0266
     62 H           1.3967   -1.1131    0.0000 H       1  UNL1        0.0266
     63 H           9.8798    1.9940    0.0000 H       1  UNL1        0.0271
     64 H           9.4780    2.6838    0.0000 H       1  UNL1        0.0271
     65 H           8.8892   -0.5528    0.0000 H       1  UNL1        0.0235
     66 H           9.7343   -0.3193    0.0000 H       1  UNL1        0.0235
     67 H           9.5008    0.5259    0.0000 H       1  UNL1        0.0235
     68 H           1.9048   -3.1992    0.0000 H       1  UNL1        0.0235
     69 H           2.1350   -4.0452    0.0000 H       1  UNL1        0.0235
     70 H           2.9072   -3.8153    0.0000 H       1  UNL1        0.0235
     71 H           3.7550   -4.0390    0.0000 H       1  UNL1        0.0235
     72 H           3.9787   -3.1912    0.0000 H       1  UNL1        0.0235
     73 H           2.9811   -3.8150    0.0000 H       1  UNL1        0.0235
     74 H           9.3556    3.2033    0.0000 H       1  UNL1        0.0235
     75 H           9.1189    4.0476    0.0000 H       1  UNL1        0.0235
     76 H           8.3485    3.8117    0.0000 H       1  UNL1        0.0235
     77 H           7.4990    4.0288    0.0000 H       1  UNL1        0.0235
     78 H           7.2818    3.1793    0.0000 H       1  UNL1        0.0235
     79 H           8.2746    3.8108    0.0000 H       1  UNL1        0.0235
@<TRIPOS>BOND
     1     1    14    2
     2     2     3    1
     3     2     5    1
     4     2    14    1
     5     2    18    1
     6     3     4    1
     7     3    12    1
     8     3    32    1
     9     4     6    1
    10     4    15    1
    11     4    20    1
    12     5     7    1
    13     5    10    1
    14     5    21    1
    15     6    11    1
    16     6    13    1
    17     6    33    1
    18     7     8    1
    19     7    17    2
    20     8     9    1
    21     8    19    1
    22     8    34    1
    23     9    16    1
    24     9    23    1
    25     9    27    1
    26    10    16    1
    27    10    35    1
    28    10    36    1
    29    11    22    1
    30    11    28    1
    31    11    29    1
    32    12    17    1
    33    12    37    1
    34    12    38    1
    35    13    14    1
    36    13    39    1
    37    13    40    1
    38    15    24    1
    39    15    41    1
    40    15    42    1
    41    16    43    1
    42    16    44    1
    43    17    45    1
    44    18    46    1
    45    18    47    1
    46    18    48    1
    47    19    25    1
    48    19    49    1
    49    19    50    1
    50    20    51    1
    51    20    52    1
    52    20    53    1
    53    21    54    1
    54    21    55    1
    55    21    56    1
    56    22    24    1
    57    22    57    1
    58    22    58    1
    59    23    26    1
    60    23    59    1
    61    23    60    1
    62    24    61    1
    63    24    62    1
    64    25    26    1
    65    25    30    1
    66    25    31    1
    67    26    63    1
    68    26    64    1
    69    27    65    1
    70    27    66    1
    71    27    67    1
    72    28    68    1
    73    28    69    1
    74    28    73    1
    75    29    70    1
    76    29    71    1
    77    29    72    1
    78    30    74    1
    79    30    75    1
    80    30    79    1
    81    31    76    1
    82    31    77    1
    83    31    78    1
