@<TRIPOS>MOLECULE
IMPHY010346
 69 68 0 0 0
SMALL
GASTEIGER

@<TRIPOS>ATOM
      1 O          12.0632   -0.5950    0.0000 O.3     1  UNL1       -0.3918
      2 O           2.5369    0.9050    0.0000 O.3     1  UNL1       -0.4806
      3 O           3.4030   -0.5950    0.0000 O.2     1  UNL1       -0.2510
      4 C          12.0632    0.4050    0.0000 C.3     1  UNL1        0.0553
      5 C          12.9292    0.9050    0.0000 C.3     1  UNL1       -0.0269
      6 C          11.1972    0.9050    0.0000 C.3     1  UNL1       -0.0269
      7 C          13.7953    0.4050    0.0000 C.3     1  UNL1       -0.0507
      8 C          10.3312    0.4050    0.0000 C.3     1  UNL1       -0.0507
      9 C          14.6613    0.9050    0.0000 C.3     1  UNL1       -0.0530
     10 C          15.5273    0.4050    0.0000 C.3     1  UNL1       -0.0531
     11 C           9.4651    0.9050    0.0000 C.3     1  UNL1       -0.0530
     12 C          16.3933    0.9050    0.0000 C.3     1  UNL1       -0.0531
     13 C           8.5991    0.4050    0.0000 C.3     1  UNL1       -0.0531
     14 C          17.2594    0.4050    0.0000 C.3     1  UNL1       -0.0531
     15 C           7.7331    0.9050    0.0000 C.3     1  UNL1       -0.0531
     16 C          18.1254    0.9050    0.0000 C.3     1  UNL1       -0.0531
     17 C           6.8671    0.4050    0.0000 C.3     1  UNL1       -0.0530
     18 C          18.9914    0.4050    0.0000 C.3     1  UNL1       -0.0531
     19 C           6.0010    0.9050    0.0000 C.3     1  UNL1       -0.0526
     20 C          19.8574    0.9050    0.0000 C.3     1  UNL1       -0.0533
     21 C           5.1350    0.4050    0.0000 C.3     1  UNL1       -0.0430
     22 C          20.7235    0.4050    0.0000 C.3     1  UNL1       -0.0559
     23 C           4.2690    0.9050    0.0000 C.3     1  UNL1        0.0448
     24 C          21.5895    0.9050    0.0000 C.3     1  UNL1       -0.0653
     25 C           3.4030    0.4050    0.0000 C.2     1  UNL1        0.3047
     26 H          12.6002    0.0950    0.0000 H       1  UNL1        0.0593
     27 H          13.3278    1.3800    0.0000 H       1  UNL1        0.0290
     28 H          12.5307    1.3800    0.0000 H       1  UNL1        0.0290
     29 H          11.5957    1.3800    0.0000 H       1  UNL1        0.0290
     30 H          10.7987    1.3800    0.0000 H       1  UNL1        0.0290
     31 H          13.3967   -0.0699    0.0000 H       1  UNL1        0.0266
     32 H          14.1938   -0.0699    0.0000 H       1  UNL1        0.0266
     33 H           9.9326   -0.0699    0.0000 H       1  UNL1        0.0266
     34 H          10.7297   -0.0699    0.0000 H       1  UNL1        0.0266
     35 H          15.0598    1.3800    0.0000 H       1  UNL1        0.0265
     36 H          14.2628    1.3800    0.0000 H       1  UNL1        0.0265
     37 H          15.1288   -0.0699    0.0000 H       1  UNL1        0.0265
     38 H          15.9258   -0.0699    0.0000 H       1  UNL1        0.0265
     39 H           9.8637    1.3800    0.0000 H       1  UNL1        0.0265
     40 H           9.0666    1.3800    0.0000 H       1  UNL1        0.0265
     41 H          16.7919    1.3800    0.0000 H       1  UNL1        0.0265
     42 H          15.9948    1.3800    0.0000 H       1  UNL1        0.0265
     43 H           8.2006   -0.0699    0.0000 H       1  UNL1        0.0265
     44 H           8.9976   -0.0699    0.0000 H       1  UNL1        0.0265
     45 H          16.8608   -0.0699    0.0000 H       1  UNL1        0.0265
     46 H          17.6579   -0.0699    0.0000 H       1  UNL1        0.0265
     47 H           8.1316    1.3800    0.0000 H       1  UNL1        0.0265
     48 H           7.3346    1.3800    0.0000 H       1  UNL1        0.0265
     49 H          18.5239    1.3800    0.0000 H       1  UNL1        0.0265
     50 H          17.7269    1.3800    0.0000 H       1  UNL1        0.0265
     51 H           6.4685   -0.0699    0.0000 H       1  UNL1        0.0265
     52 H           7.2656   -0.0699    0.0000 H       1  UNL1        0.0265
     53 H          18.5929   -0.0699    0.0000 H       1  UNL1        0.0265
     54 H          19.3899   -0.0699    0.0000 H       1  UNL1        0.0265
     55 H           6.3996    1.3800    0.0000 H       1  UNL1        0.0265
     56 H           5.6025    1.3800    0.0000 H       1  UNL1        0.0265
     57 H          20.2560    1.3800    0.0000 H       1  UNL1        0.0265
     58 H          19.4589    1.3800    0.0000 H       1  UNL1        0.0265
     59 H          11.5263   -0.9050    0.0000 H       1  UNL1        0.2098
     60 H           4.7365   -0.0699    0.0000 H       1  UNL1        0.0270
     61 H           5.5335   -0.0699    0.0000 H       1  UNL1        0.0270
     62 H          20.3249   -0.0699    0.0000 H       1  UNL1        0.0263
     63 H          21.1220   -0.0699    0.0000 H       1  UNL1        0.0263
     64 H           4.6675    1.3800    0.0000 H       1  UNL1        0.0377
     65 H           3.8705    1.3800    0.0000 H       1  UNL1        0.0377
     66 H          21.8995    0.3681    0.0000 H       1  UNL1        0.0230
     67 H          22.1264    1.2150    0.0000 H       1  UNL1        0.0230
     68 H          21.2795    1.4419    0.0000 H       1  UNL1        0.0230
     69 H           2.0000    0.5950    0.0000 H       1  UNL1        0.2951
@<TRIPOS>BOND
     1     1     4    1
     2     1    59    1
     3     2    25    1
     4     2    69    1
     5     3    25    2
     6     4     5    1
     7     4     6    1
     8     4    26    1
     9     5     7    1
    10     5    27    1
    11     5    28    1
    12     6     8    1
    13     6    29    1
    14     6    30    1
    15     7     9    1
    16     7    31    1
    17     7    32    1
    18     8    11    1
    19     8    33    1
    20     8    34    1
    21     9    10    1
    22     9    35    1
    23     9    36    1
    24    10    12    1
    25    10    37    1
    26    10    38    1
    27    11    13    1
    28    11    39    1
    29    11    40    1
    30    12    14    1
    31    12    41    1
    32    12    42    1
    33    13    15    1
    34    13    43    1
    35    13    44    1
    36    14    16    1
    37    14    45    1
    38    14    46    1
    39    15    17    1
    40    15    47    1
    41    15    48    1
    42    16    18    1
    43    16    49    1
    44    16    50    1
    45    17    19    1
    46    17    51    1
    47    17    52    1
    48    18    20    1
    49    18    53    1
    50    18    54    1
    51    19    21    1
    52    19    55    1
    53    19    56    1
    54    20    22    1
    55    20    57    1
    56    20    58    1
    57    21    23    1
    58    21    60    1
    59    21    61    1
    60    22    24    1
    61    22    62    1
    62    22    63    1
    63    23    25    1
    64    23    64    1
    65    23    65    1
    66    24    66    1
    67    24    67    1
    68    24    68    1
