@<TRIPOS>MOLECULE
IMPHY006457
 40 41 0 0 0
SMALL
GASTEIGER

@<TRIPOS>ATOM
      1 O           6.1783   -0.4324    0.0000 O.3     1  UNL1       -0.3754
      2 C           5.2320    0.8724    0.0000 C.3     1  UNL1       -0.0094
      3 C           5.2320   -0.1276    0.0000 C.3     1  UNL1        0.0690
      4 C           4.3660   -0.6276    0.0000 C.3     1  UNL1        0.0149
      5 C           3.5000   -0.1276    0.0000 C.3     1  UNL1       -0.0055
      6 C           4.3660    1.3724    0.0000 C.3     1  UNL1       -0.0467
      7 C           6.1783    1.1771    0.0000 C.3     1  UNL1       -0.0152
      8 C           3.5000    0.8724    0.0000 C.3     1  UNL1       -0.0432
      9 C           6.7619    0.3724    0.0000 C.3     1  UNL1        0.0510
     10 C           4.3660   -1.6276    0.0000 C.2     1  UNL1       -0.0733
     11 C           3.0000   -0.9937    0.0000 C.3     1  UNL1       -0.0555
     12 C           6.4889    2.1276    0.0000 C.3     1  UNL1       -0.0600
     13 C           2.5000   -0.1276    0.0000 C.2     1  UNL1       -0.0845
     14 C           5.2320   -2.1276    0.0000 C.3     1  UNL1       -0.0437
     15 C           3.5000   -2.1276    0.0000 C.2     1  UNL1       -0.0993
     16 C           2.0000    0.7384    0.0000 C.2     1  UNL1       -0.1021
     17 H           5.3220    1.7176    0.0000 H       1  UNL1        0.0329
     18 H           5.3220   -0.9729    0.0000 H       1  UNL1        0.0605
     19 H           4.9030   -0.9376    0.0000 H       1  UNL1        0.0379
     20 H           4.7646    1.8473    0.0000 H       1  UNL1        0.0269
     21 H           3.9675    1.8473    0.0000 H       1  UNL1        0.0269
     22 H           6.7908    1.2733    0.0000 H       1  UNL1        0.0324
     23 H           3.2880    1.4550    0.0000 H       1  UNL1        0.0274
     24 H           2.8894    0.7647    0.0000 H       1  UNL1        0.0274
     25 H           7.2228   -0.0424    0.0000 H       1  UNL1        0.0563
     26 H           7.2228    0.7871    0.0000 H       1  UNL1        0.0563
     27 H           2.4631   -0.6837    0.0000 H       1  UNL1        0.0238
     28 H           2.6900   -1.5306    0.0000 H       1  UNL1        0.0238
     29 H           3.5369   -1.3036    0.0000 H       1  UNL1        0.0238
     30 H           7.0783    1.9350    0.0000 H       1  UNL1        0.0233
     31 H           6.6815    2.7170    0.0000 H       1  UNL1        0.0233
     32 H           5.8996    2.3202    0.0000 H       1  UNL1        0.0233
     33 H           2.1900   -0.6646    0.0000 H       1  UNL1        0.0572
     34 H           4.9220   -2.6646    0.0000 H       1  UNL1        0.0274
     35 H           5.7690   -2.4376    0.0000 H       1  UNL1        0.0274
     36 H           5.5420   -1.5907    0.0000 H       1  UNL1        0.0274
     37 H           2.9631   -1.8176    0.0000 H       1  UNL1        0.0534
     38 H           3.5000   -2.7476    0.0000 H       1  UNL1        0.0534
     39 H           2.3100    1.2753    0.0000 H       1  UNL1        0.0532
     40 H           1.3800    0.7384    0.0000 H       1  UNL1        0.0532
@<TRIPOS>BOND
     1     1     3    1
     2     1     9    1
     3     2     3    1
     4     2     6    1
     5     2     7    1
     6     2    17    1
     7     3     4    1
     8     3    18    1
     9     4     5    1
    10     4    10    1
    11     4    19    1
    12     5     8    1
    13     5    11    1
    14     5    13    1
    15     6     8    1
    16     6    20    1
    17     6    21    1
    18     7     9    1
    19     7    12    1
    20     7    22    1
    21     8    23    1
    22     8    24    1
    23     9    25    1
    24     9    26    1
    25    10    14    1
    26    10    15    2
    27    11    27    1
    28    11    28    1
    29    11    29    1
    30    12    30    1
    31    12    31    1
    32    12    32    1
    33    13    16    2
    34    13    33    1
    35    14    34    1
    36    14    35    1
    37    14    36    1
    38    15    37    1
    39    15    38    1
    40    16    39    1
    41    16    40    1
