@<TRIPOS>MOLECULE
IMPHY010691
 36 41 0 0 0
SMALL
GASTEIGER

@<TRIPOS>ATOM
      1 O           1.3159   -2.6319    0.0000 O.3     1  UNL1       -0.4800
      2 C           1.3159   -3.9478    0.0000 C.3     1  UNL1        0.1649
      3 C           2.4709   -4.6105    0.0000 C.3     1  UNL1        0.2321
      4 C           3.6165   -3.9478    0.0000 C.3     1  UNL1        0.2276
      5 C           3.6165   -2.6319    0.0000 C.ar    1  UNL1        0.0884
      6 C           4.7431   -1.9786    0.0000 C.ar    1  UNL1        0.1510
      7 O           5.8980   -2.6319    0.0000 O.2     1  UNL1       -0.4211
      8 C           7.0341   -1.9786    0.0000 C.ar    1  UNL1        0.3459
      9 C           7.0341   -0.6438    0.0000 C.ar    1  UNL1        0.0824
     10 C           5.8980    0.0000    0.0000 C.ar    1  UNL1        0.0097
     11 C           4.7431   -0.6438    0.0000 C.ar    1  UNL1        0.0349
     12 C           3.6165    0.0000    0.0000 C.ar    1  UNL1        0.0061
     13 C           2.4709   -0.6438    0.0000 C.ar    1  UNL1        0.0369
     14 C           2.4709   -1.9786    0.0000 C.ar    1  UNL1        0.1407
     15 C           0.6627   -5.1028    0.0000 C.3     1  UNL1        0.0464
     16 C           0.0000   -3.9478    0.0000 C.3     1  UNL1        0.0464
     17 O           2.4709   -5.9359    0.0000 O.3     1  UNL1       -0.2151
     18 O           4.7431   -4.6105    0.0000 O.3     1  UNL1       -0.4716
     19 C           4.7431   -6.3241    0.0000 C.ar    1  UNL1        0.1447
     20 C           5.9075   -6.9962    0.0000 C.ar    1  UNL1        0.0690
     21 C           7.0530   -6.3241    0.0000 C.ar    1  UNL1        0.0127
     22 C           8.1891   -6.9962    0.0000 C.ar    1  UNL1        0.0825
     23 C           8.1891   -8.3406    0.0000 C.ar    1  UNL1        0.3459
     24 O           7.0530   -8.9749    0.0000 O.2     1  UNL1       -0.4208
     25 C           5.9075   -8.3406    0.0000 C.ar    1  UNL1        0.1546
     26 C           4.7431   -8.9749    0.0000 C.ar    1  UNL1        0.0747
     27 C           3.6165   -8.3406    0.0000 C.ar    1  UNL1        0.1445
     28 O           2.4804   -8.9749    0.0000 O.3     1  UNL1       -0.4783
     29 C           1.3254   -8.3406    0.0000 C.3     1  UNL1        0.1517
     30 C           1.3254   -6.9962    0.0000 C.2     1  UNL1        0.0130
     31 C           2.4804   -6.3241    0.0000 C.2     1  UNL1        0.0049
     32 C           3.6165   -6.9962    0.0000 C.ar    1  UNL1        0.0679
     33 O           8.1796   -2.6319    0.0000 O.2     1  UNL1       -0.2445
     34 O           9.3252   -8.9749    0.0000 O.2     1  UNL1       -0.2445
     35 C           0.6722   -9.4672    0.0000 C.3     1  UNL1        0.0483
     36 C           0.0095   -8.3406    0.0000 C.3     1  UNL1        0.0483
@<TRIPOS>BOND
     1     1    14    1
     2     1     2    1
     3     2     3    1
     4     2    15    1
     5     2    16    1
     6     3     4    1
     7     3    17    1
     8     4     5    1
     9     4    18    1
    10     5     6   ar
    11     5    14   ar
    12     6     7   ar
    13     6    11   ar
    14     7     8   ar
    15     8     9   ar
    16     8    33    2
    17     9    10   ar
    18    10    11   ar
    19    11    12   ar
    20    12    13   ar
    21    13    14   ar
    22    18    19    1
    23    19    20   ar
    24    19    32   ar
    25    20    21   ar
    26    20    25   ar
    27    21    22   ar
    28    22    23   ar
    29    23    24   ar
    30    23    34    2
    31    24    25   ar
    32    25    26   ar
    33    26    27   ar
    34    27    32   ar
    35    27    28    1
    36    28    29    1
    37    29    30    1
    38    29    35    1
    39    29    36    1
    40    30    31    2
    41    31    32    1
