@<TRIPOS>MOLECULE
IMPHY011962
 110 112 0 0 0
SMALL
GASTEIGER

@<TRIPOS>ATOM
      1 O          15.4469    0.7326    0.0000 O.3     1  UNL1       -0.3683
      2 O          17.5160    0.0603    0.0000 O.3     1  UNL1       -0.3683
      3 O          13.4789    0.0332    0.0000 O.3     1  UNL1       -0.3892
      4 O          18.6970   -1.6622    0.0000 O.3     1  UNL1       -0.3892
      5 O           6.3748    4.0991    0.0000 O.3     1  UNL1       -0.3915
      6 O           3.6636    4.8824    0.0000 O.3     1  UNL1       -0.4542
      7 O           5.4432    4.9756    0.0000 O.2     1  UNL1       -0.2453
      8 C          16.2559    1.3204    0.0000 C.3     1  UNL1        0.0853
      9 C          17.2070    1.0114    0.0000 C.3     1  UNL1        0.0853
     10 C          15.9469    2.2715    0.0000 C.3     1  UNL1       -0.0217
     11 C          18.0160    1.5992    0.0000 C.3     1  UNL1       -0.0217
     12 C          14.6379    1.3204    0.0000 C.3     1  UNL1        0.0850
     13 C          18.5160    0.0603    0.0000 C.3     1  UNL1        0.0850
     14 C          14.9469    2.2715    0.0000 C.3     1  UNL1       -0.0217
     15 C          18.8250    1.0114    0.0000 C.3     1  UNL1       -0.0217
     16 C          13.6868    1.0114    0.0000 C.3     1  UNL1        0.0813
     17 C          19.1038   -0.7487    0.0000 C.3     1  UNL1        0.0813
     18 C          12.9437    1.6805    0.0000 C.3     1  UNL1       -0.0244
     19 C          20.0983   -0.6442    0.0000 C.3     1  UNL1       -0.0244
     20 C          11.9926    1.3715    0.0000 C.3     1  UNL1       -0.0506
     21 C          20.6861   -1.4532    0.0000 C.3     1  UNL1       -0.0506
     22 C          11.2495    2.0406    0.0000 C.3     1  UNL1       -0.0530
     23 C          21.6806   -1.3486    0.0000 C.3     1  UNL1       -0.0530
     24 C          10.2984    1.7316    0.0000 C.3     1  UNL1       -0.0531
     25 C          22.2684   -2.1577    0.0000 C.3     1  UNL1       -0.0531
     26 C           9.5553    2.4008    0.0000 C.3     1  UNL1       -0.0531
     27 C          23.2629   -2.0531    0.0000 C.3     1  UNL1       -0.0531
     28 C           8.6042    2.0917    0.0000 C.3     1  UNL1       -0.0530
     29 C          23.8507   -2.8622    0.0000 C.3     1  UNL1       -0.0531
     30 C           7.8611    2.7609    0.0000 C.3     1  UNL1       -0.0507
     31 C          24.8452   -2.7576    0.0000 C.3     1  UNL1       -0.0531
     32 C           6.9100    2.4518    0.0000 C.3     1  UNL1       -0.0265
     33 C          25.4330   -3.5666    0.0000 C.3     1  UNL1       -0.0531
     34 C           6.1669    3.1210    0.0000 C.3     1  UNL1        0.0594
     35 C          26.4275   -3.4621    0.0000 C.3     1  UNL1       -0.0531
     36 C           5.2158    2.8120    0.0000 C.3     1  UNL1        0.0050
     37 C          27.0153   -4.2711    0.0000 C.3     1  UNL1       -0.0533
     38 C           4.4727    3.4811    0.0000 C.2     1  UNL1        0.0385
     39 C          28.0098   -4.1666    0.0000 C.3     1  UNL1       -0.0559
     40 C           3.4945    3.2732    0.0000 C.2     1  UNL1       -0.0342
     41 C           2.9945    4.1392    0.0000 C.3     1  UNL1        0.1195
     42 C           4.5772    4.4756    0.0000 C.2     1  UNL1        0.3356
     43 C          28.5976   -4.9756    0.0000 C.3     1  UNL1       -0.0653
     44 C           2.0000    4.2437    0.0000 C.3     1  UNL1       -0.0240
     45 H          16.3889    0.4809    0.0000 H       1  UNL1        0.0622
     46 H          17.0740    1.8509    0.0000 H       1  UNL1        0.0622
     47 H          16.5533    2.4004    0.0000 H       1  UNL1        0.0292
     48 H          15.8821    2.8881    0.0000 H       1  UNL1        0.0292
     49 H          18.4308    2.0599    0.0000 H       1  UNL1        0.0292
     50 H          17.6011    2.0599    0.0000 H       1  UNL1        0.0292
     51 H          14.5049    0.4809    0.0000 H       1  UNL1        0.0622
     52 H          18.1301   -0.6970    0.0000 H       1  UNL1        0.0622
     53 H          15.0117    2.8881    0.0000 H       1  UNL1        0.0292
     54 H          14.3404    2.4004    0.0000 H       1  UNL1        0.0292
     55 H          19.3914    0.7592    0.0000 H       1  UNL1        0.0292
     56 H          19.1350    1.5483    0.0000 H       1  UNL1        0.0292
     57 H          13.0972    0.8198    0.0000 H       1  UNL1        0.0619
     58 H          19.4682   -1.2503    0.0000 H       1  UNL1        0.0619
     59 H          13.4322    2.0622    0.0000 H       1  UNL1        0.0291
     60 H          12.6526    2.2280    0.0000 H       1  UNL1        0.0291
     61 H          20.6555   -0.3724    0.0000 H       1  UNL1        0.0291
     62 H          19.9274   -0.0482    0.0000 H       1  UNL1        0.0291
     63 H          11.5041    0.9898    0.0000 H       1  UNL1        0.0266
     64 H          12.2837    0.8241    0.0000 H       1  UNL1        0.0266
     65 H          20.1288   -1.7250    0.0000 H       1  UNL1        0.0266
     66 H          20.8570   -2.0492    0.0000 H       1  UNL1        0.0266
     67 H          12.8893   -0.1583    0.0000 H       1  UNL1        0.2099
     68 H          19.0615   -2.1638    0.0000 H       1  UNL1        0.2099
     69 H          11.7380    2.4223    0.0000 H       1  UNL1        0.0265
     70 H          10.9584    2.5881    0.0000 H       1  UNL1        0.0265
     71 H          22.2379   -1.0768    0.0000 H       1  UNL1        0.0265
     72 H          21.5097   -0.7527    0.0000 H       1  UNL1        0.0265
     73 H           9.8099    1.3499    0.0000 H       1  UNL1        0.0265
     74 H          10.5895    1.1842    0.0000 H       1  UNL1        0.0265
     75 H          21.7111   -2.4294    0.0000 H       1  UNL1        0.0265
     76 H          22.4393   -2.7536    0.0000 H       1  UNL1        0.0265
     77 H          10.0438    2.7825    0.0000 H       1  UNL1        0.0265
     78 H           9.2642    2.9482    0.0000 H       1  UNL1        0.0265
     79 H          23.8202   -1.7813    0.0000 H       1  UNL1        0.0265
     80 H          23.0920   -1.4572    0.0000 H       1  UNL1        0.0265
     81 H           8.1156    1.7100    0.0000 H       1  UNL1        0.0265
     82 H           8.8953    1.5443    0.0000 H       1  UNL1        0.0265
     83 H          23.2934   -3.1339    0.0000 H       1  UNL1        0.0265
     84 H          24.0216   -3.4581    0.0000 H       1  UNL1        0.0265
     85 H           8.3496    3.1426    0.0000 H       1  UNL1        0.0266
     86 H           7.5700    3.3083    0.0000 H       1  UNL1        0.0266
     87 H          25.4025   -2.4858    0.0000 H       1  UNL1        0.0265
     88 H          24.6743   -2.1616    0.0000 H       1  UNL1        0.0265
     89 H           6.4214    2.0701    0.0000 H       1  UNL1        0.0290
     90 H           7.2011    1.9044    0.0000 H       1  UNL1        0.0290
     91 H          24.8757   -3.8384    0.0000 H       1  UNL1        0.0265
     92 H          25.6039   -4.1626    0.0000 H       1  UNL1        0.0265
     93 H           6.7565    3.3126    0.0000 H       1  UNL1        0.0596
     94 H          26.9848   -3.1903    0.0000 H       1  UNL1        0.0265
     95 H          26.2566   -2.8661    0.0000 H       1  UNL1        0.0265
     96 H           4.7272    2.4302    0.0000 H       1  UNL1        0.0340
     97 H           5.5069    2.2645    0.0000 H       1  UNL1        0.0340
     98 H          26.4581   -4.5429    0.0000 H       1  UNL1        0.0265
     99 H          27.1862   -4.8671    0.0000 H       1  UNL1        0.0265
    100 H          28.5671   -3.8948    0.0000 H       1  UNL1        0.0263
    101 H          27.8389   -3.5706    0.0000 H       1  UNL1        0.0263
    102 H           6.9644    4.2907    0.0000 H       1  UNL1        0.2098
    103 H           3.2424    2.7068    0.0000 H       1  UNL1        0.0613
    104 H           2.7723    4.7180    0.0000 H       1  UNL1        0.0777
    105 H          28.0960   -5.3400    0.0000 H       1  UNL1        0.0230
    106 H          28.9620   -5.4772    0.0000 H       1  UNL1        0.0230
    107 H          29.0992   -4.6112    0.0000 H       1  UNL1        0.0230
    108 H           2.0648    4.8603    0.0000 H       1  UNL1        0.0268
    109 H           1.3834    4.3085    0.0000 H       1  UNL1        0.0268
    110 H           1.9352    3.6271    0.0000 H       1  UNL1        0.0268
@<TRIPOS>BOND
     1     1     8    1
     2     1    12    1
     3     2     9    1
     4     2    13    1
     5    16     3    1
     6     3    67    1
     7    17     4    1
     8     4    68    1
     9    34     5    1
    10     5   102    1
    11     6    41    1
    12     6    42    1
    13     7    42    2
    14     8     9    1
    15     8    10    1
    16     8    45    1
    17     9    11    1
    18     9    46    1
    19    10    14    1
    20    10    47    1
    21    10    48    1
    22    11    15    1
    23    11    49    1
    24    11    50    1
    25    12    14    1
    26    12    16    1
    27    12    51    1
    28    13    15    1
    29    13    17    1
    30    13    52    1
    31    14    53    1
    32    14    54    1
    33    15    55    1
    34    15    56    1
    35    16    18    1
    36    16    57    1
    37    17    19    1
    38    17    58    1
    39    18    20    1
    40    18    59    1
    41    18    60    1
    42    19    21    1
    43    19    61    1
    44    19    62    1
    45    20    22    1
    46    20    63    1
    47    20    64    1
    48    21    23    1
    49    21    65    1
    50    21    66    1
    51    22    24    1
    52    22    69    1
    53    22    70    1
    54    23    25    1
    55    23    71    1
    56    23    72    1
    57    24    26    1
    58    24    73    1
    59    24    74    1
    60    25    27    1
    61    25    75    1
    62    25    76    1
    63    26    28    1
    64    26    77    1
    65    26    78    1
    66    27    29    1
    67    27    79    1
    68    27    80    1
    69    28    30    1
    70    28    81    1
    71    28    82    1
    72    29    31    1
    73    29    83    1
    74    29    84    1
    75    30    32    1
    76    30    85    1
    77    30    86    1
    78    31    33    1
    79    31    87    1
    80    31    88    1
    81    32    34    1
    82    32    89    1
    83    32    90    1
    84    33    35    1
    85    33    91    1
    86    33    92    1
    87    34    36    1
    88    34    93    1
    89    35    37    1
    90    35    94    1
    91    35    95    1
    92    36    38    1
    93    36    96    1
    94    36    97    1
    95    37    39    1
    96    37    98    1
    97    37    99    1
    98    38    40    2
    99    38    42    1
   100    39    43    1
   101    39   100    1
   102    39   101    1
   103    40    41    1
   104    40   103    1
   105    41    44    1
   106    41   104    1
   107    43   105    1
   108    43   106    1
   109    43   107    1
   110    44   108    1
   111    44   109    1
   112    44   110    1
