@<TRIPOS>MOLECULE
IMPHY003604
 85 90 0 0 0
SMALL
GASTEIGER

@<TRIPOS>ATOM
      1 O           7.6855    1.7174    0.0000 O.3     1  UNL1       -0.3874
      2 O           6.0010   -3.7135    0.0000 O.3     1  UNL1       -0.3454
      3 O           4.3835    5.8277    0.0000 O.3     1  UNL1       -0.4571
      4 O           4.2690   -3.7135    0.0000 O.3     1  UNL1       -0.3431
      5 O           6.0010   -5.7135    0.0000 O.3     1  UNL1       -0.3841
      6 O           5.5038    7.2135    0.0000 O.2     1  UNL1       -0.2456
      7 O           4.2690   -6.7135    0.0000 O.3     1  UNL1       -0.3744
      8 O           2.5369   -5.7135    0.0000 O.3     1  UNL1       -0.3866
      9 C           6.0288    0.3556    0.0000 C.3     1  UNL1       -0.0290
     10 C           6.8968    0.8523    0.0000 C.3     1  UNL1       -0.0079
     11 C           6.0250   -0.6443    0.0000 C.3     1  UNL1       -0.0259
     12 C           6.6913    1.8249    0.0000 C.3     1  UNL1        0.0782
     13 C           5.7030    1.9318    0.0000 C.3     1  UNL1        0.0185
     14 C           5.2944    1.0256    0.0000 C.3     1  UNL1       -0.0376
     15 C           6.8891   -1.1477    0.0000 C.3     1  UNL1       -0.0330
     16 C           7.7609    0.3490    0.0000 C.3     1  UNL1       -0.0470
     17 C           7.7570   -0.6510    0.0000 C.3     1  UNL1       -0.0493
     18 C           7.3153    2.6513    0.0000 C.3     1  UNL1       -0.0221
     19 C           5.1130   -1.1477    0.0000 C.3     1  UNL1       -0.0448
     20 C           5.2701    2.8724    0.0000 C.2     1  UNL1       -0.0608
     21 C           6.9011   -2.1892    0.0000 C.3     1  UNL1       -0.0232
     22 C           5.1609   -0.1410    0.0000 C.3     1  UNL1       -0.0590
     23 C           4.7088    2.0393    0.0000 C.3     1  UNL1       -0.0532
     24 C           5.8748    3.7130    0.0000 C.3     1  UNL1        0.0053
     25 C           6.9042    3.6017    0.0000 C.3     1  UNL1       -0.0400
     26 C           5.1010   -2.1892    0.0000 C.3     1  UNL1       -0.0260
     27 C           6.0010   -2.7135    0.0000 C.3     1  UNL1        0.0621
     28 C           4.2747    2.9684    0.0000 C.2     1  UNL1       -0.0983
     29 C           5.4672    4.6262    0.0000 C.2     1  UNL1       -0.0188
     30 C           4.4889    4.8332    0.0000 C.3     1  UNL1        0.1150
     31 C           5.1350   -4.2135    0.0000 C.3     1  UNL1        0.1881
     32 C           5.9665    5.4926    0.0000 C.2     1  UNL1        0.0255
     33 C           5.1350   -5.2135    0.0000 C.3     1  UNL1        0.1344
     34 C           5.2967    6.2352    0.0000 C.2     1  UNL1        0.3323
     35 C           4.2690   -5.7135    0.0000 C.3     1  UNL1        0.1170
     36 C           3.4030   -4.2135    0.0000 C.3     1  UNL1        0.0873
     37 C           3.4030   -5.2135    0.0000 C.3     1  UNL1        0.1097
     38 C           2.5369   -3.7135    0.0000 C.3     1  UNL1       -0.0361
     39 C           3.4030   -7.2135    0.0000 C.3     1  UNL1        0.0370
     40 H           6.7633   -0.0722    0.0000 H       1  UNL1        0.0310
     41 H           7.5857    1.3502    0.0000 H       1  UNL1        0.0332
     42 H           4.7591    1.3384    0.0000 H       1  UNL1        0.0277
     43 H           4.9270    0.5261    0.0000 H       1  UNL1        0.0277
     44 H           7.6268   -1.5698    0.0000 H       1  UNL1        0.0307
     45 H           8.3710    0.2390    0.0000 H       1  UNL1        0.0269
     46 H           7.9752    0.9308    0.0000 H       1  UNL1        0.0269
     47 H           7.9668   -1.2344    0.0000 H       1  UNL1        0.0268
     48 H           8.3680   -0.5457    0.0000 H       1  UNL1        0.0268
     49 H           7.7388    2.1985    0.0000 H       1  UNL1        0.0293
     50 H           7.8338    2.9911    0.0000 H       1  UNL1        0.0293
     51 H           4.9107   -0.5616    0.0000 H       1  UNL1        0.0271
     52 H           4.5010   -1.2467    0.0000 H       1  UNL1        0.0271
     53 H           7.1169   -2.7705    0.0000 H       1  UNL1        0.0293
     54 H           7.5107   -2.0761    0.0000 H       1  UNL1        0.0293
     55 H           5.4729    0.3947    0.0000 H       1  UNL1        0.0235
     56 H           4.6251    0.1711    0.0000 H       1  UNL1        0.0235
     57 H           4.8488   -0.6768    0.0000 H       1  UNL1        0.0235
     58 H           4.7754    2.6557    0.0000 H       1  UNL1        0.0239
     59 H           4.0924    2.1059    0.0000 H       1  UNL1        0.0239
     60 H           4.6421    1.4229    0.0000 H       1  UNL1        0.0239
     61 H           6.2397    4.2142    0.0000 H       1  UNL1        0.0392
     62 H           7.5070    3.7468    0.0000 H       1  UNL1        0.0275
     63 H           6.8644    4.2204    0.0000 H       1  UNL1        0.0275
     64 H           4.4914   -2.0761    0.0000 H       1  UNL1        0.0290
     65 H           4.8852   -2.7705    0.0000 H       1  UNL1        0.0290
     66 H           6.5386   -3.0225    0.0000 H       1  UNL1        0.0597
     67 H           8.0514    2.2179    0.0000 H       1  UNL1        0.2102
     68 H           4.0177    3.5326    0.0000 H       1  UNL1        0.0535
     69 H           3.9146    2.4637    0.0000 H       1  UNL1        0.0535
     70 H           3.8689    4.8327    0.0000 H       1  UNL1        0.0746
     71 H           4.4246    4.2166    0.0000 H       1  UNL1        0.0746
     72 H           5.1350   -3.5935    0.0000 H       1  UNL1        0.0937
     73 H           6.5830    5.5580    0.0000 H       1  UNL1        0.0690
     74 H           5.1350   -5.8335    0.0000 H       1  UNL1        0.0671
     75 H           3.7320   -6.0235    0.0000 H       1  UNL1        0.0650
     76 H           3.4030   -3.5935    0.0000 H       1  UNL1        0.0621
     77 H           2.8660   -4.9035    0.0000 H       1  UNL1        0.0646
     78 H           6.0010   -6.3335    0.0000 H       1  UNL1        0.2101
     79 H           2.8469   -3.1766    0.0000 H       1  UNL1        0.0255
     80 H           2.0000   -3.4035    0.0000 H       1  UNL1        0.0255
     81 H           2.2269   -4.2505    0.0000 H       1  UNL1        0.0255
     82 H           2.0000   -5.4035    0.0000 H       1  UNL1        0.2100
     83 H           3.0930   -6.6766    0.0000 H       1  UNL1        0.0524
     84 H           2.8660   -7.5235    0.0000 H       1  UNL1        0.0524
     85 H           3.7130   -7.7505    0.0000 H       1  UNL1        0.0524
@<TRIPOS>BOND
     1    12     1    1
     2     1    67    1
     3    27     2    1
     4    31     2    1
     5     3    30    1
     6     3    34    1
     7     4    31    1
     8     4    36    1
     9    33     5    1
    10     5    78    1
    11     6    34    2
    12    35     7    1
    13     7    39    1
    14    37     8    1
    15     8    82    1
    16     9    10    1
    17     9    11    1
    18     9    14    1
    19     9    40    1
    20    10    12    1
    21    10    16    1
    22    10    41    1
    23    11    15    1
    24    11    19    1
    25    11    22    1
    26    12    13    1
    27    12    18    1
    28    13    14    1
    29    13    20    1
    30    13    23    1
    31    14    42    1
    32    14    43    1
    33    15    17    1
    34    15    21    1
    35    15    44    1
    36    16    17    1
    37    16    45    1
    38    16    46    1
    39    17    47    1
    40    17    48    1
    41    18    25    1
    42    18    49    1
    43    18    50    1
    44    19    26    1
    45    19    51    1
    46    19    52    1
    47    20    24    1
    48    20    28    2
    49    21    27    1
    50    21    53    1
    51    21    54    1
    52    22    55    1
    53    22    56    1
    54    22    57    1
    55    23    58    1
    56    23    59    1
    57    23    60    1
    58    24    25    1
    59    24    29    1
    60    24    61    1
    61    25    62    1
    62    25    63    1
    63    26    27    1
    64    26    64    1
    65    26    65    1
    66    27    66    1
    67    28    68    1
    68    28    69    1
    69    29    30    1
    70    29    32    2
    71    30    70    1
    72    30    71    1
    73    31    33    1
    74    31    72    1
    75    32    34    1
    76    32    73    1
    77    33    35    1
    78    33    74    1
    79    35    37    1
    80    35    75    1
    81    36    37    1
    82    36    38    1
    83    36    76    1
    84    37    77    1
    85    38    79    1
    86    38    80    1
    87    38    81    1
    88    39    83    1
    89    39    84    1
    90    39    85    1
