@<TRIPOS>MOLECULE
IMPHY003635
 30 30 0 0 0
SMALL
GASTEIGER

@<TRIPOS>ATOM
      1 O           2.0000    1.0000    0.0000 O.3     1  UNL1       -0.3856
      2 N           3.7320    2.0000    0.0000 N.3     1  UNL1       -0.3029
      3 C           3.7320    1.0000    0.0000 C.3     1  UNL1        0.0371
      4 C           2.8660    0.5000    0.0000 C.3     1  UNL1        0.0954
      5 C           4.5981    0.5000    0.0000 C.3     1  UNL1       -0.0468
      6 C           2.8660   -0.5000    0.0000 C.ar    1  UNL1       -0.0177
      7 C           4.5981    2.5000    0.0000 C.3     1  UNL1       -0.0127
      8 C           2.8660    2.5000    0.0000 C.3     1  UNL1       -0.0127
      9 C           2.0000   -1.0000    0.0000 C.ar    1  UNL1       -0.0561
     10 C           3.7320   -1.0000    0.0000 C.ar    1  UNL1       -0.0561
     11 C           2.0000   -2.0000    0.0000 C.ar    1  UNL1       -0.0614
     12 C           3.7320   -2.0000    0.0000 C.ar    1  UNL1       -0.0614
     13 C           2.8660   -2.5000    0.0000 C.ar    1  UNL1       -0.0617
     14 H           4.2690    1.3100    0.0000 H       1  UNL1        0.0488
     15 H           2.8660    1.1200    0.0000 H       1  UNL1        0.0659
     16 H           4.2881   -0.0369    0.0000 H       1  UNL1        0.0246
     17 H           5.1350    0.1900    0.0000 H       1  UNL1        0.0246
     18 H           4.9081    1.0369    0.0000 H       1  UNL1        0.0246
     19 H           4.9081    1.9631    0.0000 H       1  UNL1        0.0391
     20 H           5.1350    2.8100    0.0000 H       1  UNL1        0.0391
     21 H           4.2881    3.0369    0.0000 H       1  UNL1        0.0391
     22 H           3.1760    3.0369    0.0000 H       1  UNL1        0.0391
     23 H           2.3291    2.8100    0.0000 H       1  UNL1        0.0391
     24 H           2.5560    1.9631    0.0000 H       1  UNL1        0.0391
     25 H           1.4631   -0.6900    0.0000 H       1  UNL1        0.0621
     26 H           4.2690   -0.6900    0.0000 H       1  UNL1        0.0621
     27 H           2.0000    1.6200    0.0000 H       1  UNL1        0.2103
     28 H           1.4631   -2.3100    0.0000 H       1  UNL1        0.0618
     29 H           4.2690   -2.3100    0.0000 H       1  UNL1        0.0618
     30 H           2.8660   -3.1200    0.0000 H       1  UNL1        0.0618
@<TRIPOS>BOND
     1     4     1    1
     2     1    27    1
     3     3     2    1
     4     2     7    1
     5     2     8    1
     6     3     4    1
     7     3     5    1
     8     3    14    1
     9     4     6    1
    10     4    15    1
    11     5    16    1
    12     5    17    1
    13     5    18    1
    14     6     9   ar
    15     6    10   ar
    16     7    19    1
    17     7    20    1
    18     7    21    1
    19     8    22    1
    20     8    23    1
    21     8    24    1
    22     9    11   ar
    23     9    25    1
    24    10    12   ar
    25    10    26    1
    26    11    13   ar
    27    11    28    1
    28    12    13   ar
    29    12    29    1
    30    13    30    1
