@<TRIPOS>MOLECULE
IMPHY001464
 57 60 0 0 0
SMALL
GASTEIGER

@<TRIPOS>ATOM
      1 O          11.3520   -1.0347    0.0000 O.3     1  UNL1       -0.4778
      2 O           6.1279    2.0000    0.0000 O.3     1  UNL1       -0.3747
      3 O           9.5920    2.0000    0.0000 O.3     1  UNL1       -0.4937
      4 O           9.5920   -2.0000    0.0000 O.3     1  UNL1       -0.4914
      5 O           2.5836    0.8047    0.0000 O.3     1  UNL1       -0.4526
      6 O           2.5836   -0.8047    0.0000 O.3     1  UNL1       -0.4526
      7 O           7.8600    2.0000    0.0000 O.2     1  UNL1       -0.2918
      8 C          12.2580   -0.5208    0.0000 C.3     1  UNL1        0.1237
      9 C          10.4580    0.5000    0.0000 C.ar    1  UNL1        0.0625
     10 C          10.4580   -0.5000    0.0000 C.ar    1  UNL1        0.1738
     11 C           6.1279    1.0000    0.0000 C.3     1  UNL1        0.0904
     12 C          12.2580    0.5208    0.0000 C.2     1  UNL1       -0.0408
     13 C           8.7260    0.5000    0.0000 C.ar    1  UNL1        0.0634
     14 C           6.9939    0.5000    0.0000 C.3     1  UNL1        0.0410
     15 C           9.5920    1.0000    0.0000 C.ar    1  UNL1        0.1414
     16 C          11.3520    1.0347    0.0000 C.2     1  UNL1       -0.0477
     17 C          13.2580   -0.5247    0.0000 C.3     1  UNL1       -0.0215
     18 C          12.7547   -1.3888    0.0000 C.3     1  UNL1       -0.0215
     19 C           9.5920   -1.0000    0.0000 C.ar    1  UNL1        0.1630
     20 C           7.8600    1.0000    0.0000 C.2     1  UNL1        0.1696
     21 C           5.2619    0.5000    0.0000 C.ar    1  UNL1       -0.0148
     22 C           8.7260   -0.5000    0.0000 C.ar    1  UNL1       -0.0023
     23 C           4.3958    1.0000    0.0000 C.ar    1  UNL1       -0.0105
     24 C           5.2619   -0.5000    0.0000 C.ar    1  UNL1       -0.0524
     25 C           3.5298    0.5000    0.0000 C.ar    1  UNL1        0.1666
     26 C           3.5298   -0.5000    0.0000 C.ar    1  UNL1        0.1662
     27 C           4.3958   -1.0000    0.0000 C.ar    1  UNL1       -0.0158
     28 C           2.0000   -0.0000    0.0000 C.3     1  UNL1        0.2332
     29 C           5.2619    2.5000    0.0000 C.3     1  UNL1        0.0372
     30 C          10.4580    2.5000    0.0000 C.3     1  UNL1        0.0788
     31 C           8.7260   -2.5000    0.0000 C.3     1  UNL1        0.0790
     32 H           6.6648    1.3100    0.0000 H       1  UNL1        0.0650
     33 H          12.7938    0.8329    0.0000 H       1  UNL1        0.0611
     34 H           6.5954    0.0251    0.0000 H       1  UNL1        0.0374
     35 H           7.3925    0.0251    0.0000 H       1  UNL1        0.0374
     36 H          11.3448    1.6546    0.0000 H       1  UNL1        0.0624
     37 H          13.2556   -1.1447    0.0000 H       1  UNL1        0.0271
     38 H          13.8780   -0.5271    0.0000 H       1  UNL1        0.0271
     39 H          13.2604    0.0953    0.0000 H       1  UNL1        0.0271
     40 H          12.2166   -1.6967    0.0000 H       1  UNL1        0.0271
     41 H          13.0626   -1.9269    0.0000 H       1  UNL1        0.0271
     42 H          13.2928   -1.0808    0.0000 H       1  UNL1        0.0271
     43 H           8.1890   -0.8100    0.0000 H       1  UNL1        0.0663
     44 H           4.3958    1.6200    0.0000 H       1  UNL1        0.0659
     45 H           5.7988   -0.8100    0.0000 H       1  UNL1        0.0622
     46 H           4.3958   -1.6200    0.0000 H       1  UNL1        0.0655
     47 H           1.5391    0.4147    0.0000 H       1  UNL1        0.1166
     48 H           1.5391   -0.4147    0.0000 H       1  UNL1        0.1166
     49 H           5.5719    3.0369    0.0000 H       1  UNL1        0.0524
     50 H           4.7249    2.8100    0.0000 H       1  UNL1        0.0524
     51 H           4.9519    1.9631    0.0000 H       1  UNL1        0.0524
     52 H          10.7680    1.9631    0.0000 H       1  UNL1        0.0660
     53 H          10.9950    2.8100    0.0000 H       1  UNL1        0.0660
     54 H          10.1480    3.0369    0.0000 H       1  UNL1        0.0660
     55 H           8.4160   -1.9631    0.0000 H       1  UNL1        0.0660
     56 H           8.1890   -2.8100    0.0000 H       1  UNL1        0.0660
     57 H           9.0360   -3.0369    0.0000 H       1  UNL1        0.0660
@<TRIPOS>BOND
     1     1     8    1
     2     1    10    1
     3     2    11    1
     4     2    29    1
     5     3    15    1
     6     3    30    1
     7     4    19    1
     8     4    31    1
     9     5    25    1
    10     5    28    1
    11     6    26    1
    12     6    28    1
    13     7    20    2
    14     8    12    1
    15     8    17    1
    16     8    18    1
    17     9    10   ar
    18     9    15   ar
    19     9    16    1
    20    10    19   ar
    21    11    14    1
    22    11    21    1
    23    11    32    1
    24    12    16    2
    25    12    33    1
    26    13    15   ar
    27    13    20    1
    28    13    22   ar
    29    14    20    1
    30    14    34    1
    31    14    35    1
    32    16    36    1
    33    17    37    1
    34    17    38    1
    35    17    39    1
    36    18    40    1
    37    18    41    1
    38    18    42    1
    39    19    22   ar
    40    21    23   ar
    41    21    24   ar
    42    22    43    1
    43    23    25   ar
    44    23    44    1
    45    24    27   ar
    46    24    45    1
    47    25    26   ar
    48    26    27   ar
    49    27    46    1
    50    28    47    1
    51    28    48    1
    52    29    49    1
    53    29    50    1
    54    29    51    1
    55    30    52    1
    56    30    53    1
    57    30    54    1
    58    31    55    1
    59    31    56    1
    60    31    57    1
