@<TRIPOS>MOLECULE
IMPHY009129
 40 41 0 0 0
SMALL
GASTEIGER

@<TRIPOS>ATOM
      1 O           5.4646   -0.7390    0.0000 O.3     1  UNL1       -0.3565
      2 O           2.0000   -1.7390    0.0000 O.3     1  UNL1       -0.3917
      3 O           9.0981    0.6270    0.0000 O.2     1  UNL1       -0.2963
      4 C           4.5981   -0.2390    0.0000 C.3     1  UNL1        0.1224
      5 C           4.5981   -1.2390    0.0000 C.3     1  UNL1        0.1032
      6 C           3.7320    0.2610    0.0000 C.3     1  UNL1        0.0029
      7 C           3.7320   -1.7390    0.0000 C.3     1  UNL1        0.0052
      8 C           2.8660   -0.2390    0.0000 C.3     1  UNL1       -0.0186
      9 C           2.8660   -1.2390    0.0000 C.3     1  UNL1        0.0585
     10 C           4.5981   -2.2390    0.0000 C.3     1  UNL1       -0.0326
     11 C           5.0981    0.6270    0.0000 C.2     1  UNL1       -0.0491
     12 C           2.8660    0.7610    0.0000 C.3     1  UNL1       -0.0567
     13 C           3.7320    1.2610    0.0000 C.3     1  UNL1       -0.0567
     14 C           6.0981    0.6270    0.0000 C.2     1  UNL1       -0.0599
     15 C           6.5981    1.4930    0.0000 C.2     1  UNL1       -0.0476
     16 C           6.0981    2.3590    0.0000 C.3     1  UNL1       -0.0396
     17 C           7.5981    1.4930    0.0000 C.2     1  UNL1       -0.0195
     18 C           8.0981    0.6270    0.0000 C.2     1  UNL1        0.1433
     19 H           3.3335   -2.2140    0.0000 H       1  UNL1        0.0319
     20 H           4.1306   -2.2140    0.0000 H       1  UNL1        0.0319
     21 H           2.6540    0.3436    0.0000 H       1  UNL1        0.0296
     22 H           2.2554   -0.3467    0.0000 H       1  UNL1        0.0296
     23 H           2.8660   -1.8590    0.0000 H       1  UNL1        0.0594
     24 H           3.9781   -2.2390    0.0000 H       1  UNL1        0.0258
     25 H           4.5981   -2.8590    0.0000 H       1  UNL1        0.0258
     26 H           5.2181   -2.2390    0.0000 H       1  UNL1        0.0258
     27 H           4.7881    1.1639    0.0000 H       1  UNL1        0.0602
     28 H           3.1760    1.2979    0.0000 H       1  UNL1        0.0236
     29 H           2.3291    1.0710    0.0000 H       1  UNL1        0.0236
     30 H           2.5560    0.2240    0.0000 H       1  UNL1        0.0236
     31 H           4.3520    1.2610    0.0000 H       1  UNL1        0.0236
     32 H           3.7320    1.8810    0.0000 H       1  UNL1        0.0236
     33 H           3.1120    1.2610    0.0000 H       1  UNL1        0.0236
     34 H           2.0000   -2.3590    0.0000 H       1  UNL1        0.2098
     35 H           6.4081    0.0901    0.0000 H       1  UNL1        0.0618
     36 H           6.6350    2.6690    0.0000 H       1  UNL1        0.0278
     37 H           5.7881    2.8960    0.0000 H       1  UNL1        0.0278
     38 H           5.5611    2.0490    0.0000 H       1  UNL1        0.0278
     39 H           7.9081    2.0300    0.0000 H       1  UNL1        0.0652
     40 H           7.7881    0.0901    0.0000 H       1  UNL1        0.1075
@<TRIPOS>BOND
     1     1     4    1
     2     1     5    1
     3     9     2    1
     4     2    34    1
     5     3    18    2
     6     4     5    1
     7     4     6    1
     8     4    11    1
     9     5     7    1
    10     5    10    1
    11     6     8    1
    12     6    12    1
    13     6    13    1
    14     7     9    1
    15     7    19    1
    16     7    20    1
    17     8     9    1
    18     8    21    1
    19     8    22    1
    20     9    23    1
    21    10    24    1
    22    10    25    1
    23    10    26    1
    24    11    14    2
    25    11    27    1
    26    12    28    1
    27    12    29    1
    28    12    30    1
    29    13    31    1
    30    13    32    1
    31    13    33    1
    32    14    15    1
    33    14    35    1
    34    15    16    1
    35    15    17    2
    36    16    36    1
    37    16    37    1
    38    16    38    1
    39    17    18    1
    40    17    39    1
    41    18    40    1
