@<TRIPOS>MOLECULE
IMPHY004684
 30 30 0 0 0
SMALL
GASTEIGER

@<TRIPOS>ATOM
      1 O           8.0995   -1.0966    0.0000 O.2     1  UNL1       -0.4515
      2 O           6.1316   -1.7960    0.0000 O.2     1  UNL1       -0.2742
      3 O          12.2970    0.2114    0.0000 O.3     1  UNL1       -0.4775
      4 O          11.7617   -1.4359    0.0000 O.2     1  UNL1       -0.2458
      5 C           8.9086   -0.5088    0.0000 C.ar    1  UNL1        0.1290
      6 C           7.2905   -0.5088    0.0000 C.ar    1  UNL1        0.1837
      7 C           8.5995    0.4422    0.0000 C.ar    1  UNL1       -0.0157
      8 C           7.5995    0.4422    0.0000 C.ar    1  UNL1       -0.0113
      9 C           2.9511   -0.0976    0.0000 C.3     1  UNL1       -0.0367
     10 C           9.8596   -0.8178    0.0000 C.2     1  UNL1       -0.0126
     11 C           6.3395   -0.8178    0.0000 C.2     1  UNL1        0.2710
     12 C           2.0000   -0.4066    0.0000 C.3     1  UNL1       -0.0618
     13 C           3.1590    0.8805    0.0000 C.2     1  UNL1       -0.0761
     14 C          10.6028   -0.1487    0.0000 C.2     1  UNL1        0.0258
     15 C           4.1100    1.1895    0.0000 C.2     1  UNL1       -0.0150
     16 C           5.5963   -0.1487    0.0000 C.1     1  UNL1       -0.0157
     17 C           4.8532    0.5204    0.0000 C.1     1  UNL1       -0.0659
     18 C          11.5538   -0.4577    0.0000 C.2     1  UNL1        0.3297
     19 H           8.9640    0.9438    0.0000 H       1  UNL1        0.0655
     20 H           7.2351    0.9438    0.0000 H       1  UNL1        0.0657
     21 H           3.0373   -0.7116    0.0000 H       1  UNL1        0.0305
     22 H           3.5707   -0.1193    0.0000 H       1  UNL1        0.0305
     23 H           9.9885   -1.4243    0.0000 H       1  UNL1        0.0656
     24 H           1.8084    0.1830    0.0000 H       1  UNL1        0.0233
     25 H           1.4103   -0.5982    0.0000 H       1  UNL1        0.0233
     26 H           2.1916   -0.9963    0.0000 H       1  UNL1        0.0233
     27 H           2.6982    1.2954    0.0000 H       1  UNL1        0.0578
     28 H          10.4738    0.4577    0.0000 H       1  UNL1        0.0690
     29 H           4.2389    1.7960    0.0000 H       1  UNL1        0.0709
     30 H          12.8866    0.0198    0.0000 H       1  UNL1        0.2954
@<TRIPOS>BOND
     1     1     5   ar
     2     1     6   ar
     3     2    11    2
     4     3    18    1
     5     3    30    1
     6     4    18    2
     7     5     7   ar
     8     5    10    1
     9     6     8   ar
    10     6    11    1
    11     7     8   ar
    12     7    19    1
    13     8    20    1
    14     9    12    1
    15     9    13    1
    16     9    21    1
    17     9    22    1
    18    10    14    2
    19    10    23    1
    20    11    16    1
    21    12    24    1
    22    12    25    1
    23    12    26    1
    24    13    15    2
    25    13    27    1
    26    14    18    1
    27    14    28    1
    28    15    17    1
    29    15    29    1
    30    16    17    3
