@<TRIPOS>MOLECULE
IMPHY003640
 42 44 0 0 0
SMALL
GASTEIGER

@<TRIPOS>ATOM
      1 O           4.9654   -0.5307    0.0000 O.3     1  UNL1       -0.3883
      2 C           4.1484   -0.5808    0.0000 C.3     1  UNL1       -0.0083
      3 C           3.1636   -0.4071    0.0000 C.3     1  UNL1       -0.0304
      4 C           2.9844   -1.3994    0.0000 C.3     1  UNL1       -0.0314
      5 C           5.2242    0.4353    0.0000 C.3     1  UNL1        0.0697
      6 C           3.9774   -1.5744    0.0000 C.3     1  UNL1       -0.0419
      7 C           5.4830    1.4012    0.0000 C.3     1  UNL1       -0.0294
      8 C           4.7464    2.3838    0.0000 C.3     1  UNL1       -0.0183
      9 C           2.8216    0.5326    0.0000 C.3     1  UNL1       -0.0489
     10 C           3.4644    1.2986    0.0000 C.3     1  UNL1       -0.0473
     11 C           6.4959   -0.3594    0.0000 C.3     1  UNL1       -0.0237
     12 C           6.9147    1.2035    0.0000 C.3     1  UNL1       -0.0474
     13 C           7.2730    0.2700    0.0000 C.3     1  UNL1       -0.0500
     14 C           2.8088   -2.3838    0.0000 C.3     1  UNL1       -0.0595
     15 C           2.0000   -1.2237    0.0000 C.3     1  UNL1       -0.0595
     16 C           5.7419    2.3671    0.0000 C.3     1  UNL1       -0.0595
     17 H           4.6948   -0.8738    0.0000 H       1  UNL1        0.0331
     18 H           2.5459   -0.4599    0.0000 H       1  UNL1        0.0310
     19 H           3.8706   -2.1852    0.0000 H       1  UNL1        0.0274
     20 H           4.5883   -1.6804    0.0000 H       1  UNL1        0.0274
     21 H           5.0642    2.9162    0.0000 H       1  UNL1        0.0298
     22 H           4.1333    2.4758    0.0000 H       1  UNL1        0.0298
     23 H           2.4231    1.0075    0.0000 H       1  UNL1        0.0268
     24 H           2.2847    0.2226    0.0000 H       1  UNL1        0.0268
     25 H           3.5869    1.9064    0.0000 H       1  UNL1        0.0271
     26 H           2.9057    1.5674    0.0000 H       1  UNL1        0.0271
     27 H           6.1114   -0.8457    0.0000 H       1  UNL1        0.0293
     28 H           6.9369   -0.7952    0.0000 H       1  UNL1        0.0293
     29 H           7.5225    1.3259    0.0000 H       1  UNL1        0.0271
     30 H           6.8956    1.8232    0.0000 H       1  UNL1        0.0271
     31 H           7.6107   -0.2500    0.0000 H       1  UNL1        0.0266
     32 H           7.8255    0.5514    0.0000 H       1  UNL1        0.0266
     33 H           2.1089   -0.6133    0.0000 H       1  UNL1        0.0235
     34 H           1.3896   -1.1148    0.0000 H       1  UNL1        0.0235
     35 H           1.8911   -1.8340    0.0000 H       1  UNL1        0.0235
     36 H           2.1984   -2.2749    0.0000 H       1  UNL1        0.0235
     37 H           2.6999   -2.9942    0.0000 H       1  UNL1        0.0235
     38 H           3.4191   -2.4927    0.0000 H       1  UNL1        0.0235
     39 H           6.3407    2.2067    0.0000 H       1  UNL1        0.0235
     40 H           5.9023    2.9660    0.0000 H       1  UNL1        0.0235
     41 H           5.1430    2.5276    0.0000 H       1  UNL1        0.0235
     42 H           5.4038   -0.9691    0.0000 H       1  UNL1        0.2102
@<TRIPOS>BOND
     1     5     1    1
     2     1    42    1
     3     2     3    1
     4     2     5    1
     5     2     6    1
     6     2    17    1
     7     3     4    1
     8     3     9    1
     9     3    18    1
    10     4     6    1
    11     4    14    1
    12     4    15    1
    13     5     8    1
    14     5    11    1
    15     6    19    1
    16     6    20    1
    17     7     8    1
    18     7    10    1
    19     7    12    1
    20     7    16    1
    21     8    21    1
    22     8    22    1
    23     9    10    1
    24     9    23    1
    25     9    24    1
    26    10    25    1
    27    10    26    1
    28    11    13    1
    29    11    27    1
    30    11    28    1
    31    12    13    1
    32    12    29    1
    33    12    30    1
    34    13    31    1
    35    13    32    1
    36    14    36    1
    37    14    37    1
    38    14    38    1
    39    15    33    1
    40    15    34    1
    41    15    35    1
    42    16    39    1
    43    16    40    1
    44    16    41    1
