@<TRIPOS>MOLECULE
IMPHY004258
 56 59 0 0 0
SMALL
GASTEIGER

@<TRIPOS>ATOM
      1 O           6.2874    1.0222    0.0000 O.2     1  UNL1       -0.2744
      2 O           9.6814   -0.6980    0.0000 O.3     1  UNL1       -0.4646
      3 O           7.6654    1.5237    0.0000 O.2     1  UNL1       -0.5021
      4 O           8.3987   -1.8619    0.0000 O.2     1  UNL1       -0.2452
      5 N           5.0274   -0.7954    0.0000 N.3     1  UNL1       -0.2977
      6 N           5.0274    2.2823    0.0000 N.am    1  UNL1       -0.2845
      7 C           5.3364    0.1556    0.0000 C.3     1  UNL1        0.0290
      8 C           4.5274    0.7434    0.0000 C.3     1  UNL1        0.0904
      9 C           6.3518    0.3879    0.0000 C.3     1  UNL1       -0.0286
     10 C           3.7183    0.1556    0.0000 C.3     1  UNL1       -0.0206
     11 C           7.0547   -0.3808    0.0000 C.3     1  UNL1       -0.0008
     12 C           6.7328   -1.3714    0.0000 C.3     1  UNL1       -0.0213
     13 C           4.0274   -0.7954    0.0000 C.3     1  UNL1        0.0005
     14 C           5.7123   -1.5801    0.0000 C.3     1  UNL1        0.0026
     15 C           3.7183    1.3312    0.0000 C.ar    1  UNL1       -0.0097
     16 C           5.3364    1.3312    0.0000 C.2     1  UNL1        0.2293
     17 C           7.3991   -2.1172    0.0000 C.3     1  UNL1       -0.0513
     18 C           4.0274    2.2823    0.0000 C.ar    1  UNL1        0.0376
     19 C           8.0321   -0.1691    0.0000 C.2     1  UNL1        0.0740
     20 C           2.7029    1.0990    0.0000 C.ar    1  UNL1       -0.0558
     21 C           7.0864   -3.0670    0.0000 C.3     1  UNL1       -0.0650
     22 C           3.3424    3.0670    0.0000 C.ar    1  UNL1       -0.0402
     23 C           8.7040   -0.9097    0.0000 C.2     1  UNL1        0.3381
     24 C           8.3374    0.7831    0.0000 C.2     1  UNL1        0.0943
     25 C           2.0000    1.8677    0.0000 C.ar    1  UNL1       -0.0614
     26 C           2.3219    2.8583    0.0000 C.ar    1  UNL1       -0.0600
     27 C          10.3534   -1.4386    0.0000 C.3     1  UNL1        0.0820
     28 C           7.9708    2.4759    0.0000 C.3     1  UNL1        0.0780
     29 H           5.5067    0.9884    0.0000 H       1  UNL1        0.0476
     30 H           6.8742    0.7218    0.0000 H       1  UNL1        0.0287
     31 H           6.1122    0.9597    0.0000 H       1  UNL1        0.0287
     32 H           3.4083    0.6926    0.0000 H       1  UNL1        0.0291
     33 H           3.1519   -0.0965    0.0000 H       1  UNL1        0.0291
     34 H           7.4705   -0.8407    0.0000 H       1  UNL1        0.0356
     35 H           7.3395   -1.2437    0.0000 H       1  UNL1        0.0319
     36 H           3.4209   -0.9243    0.0000 H       1  UNL1        0.0427
     37 H           4.0922   -1.4120    0.0000 H       1  UNL1        0.0427
     38 H           5.1824   -1.9019    0.0000 H       1  UNL1        0.0429
     39 H           5.9387   -2.1574    0.0000 H       1  UNL1        0.0429
     40 H           7.9454   -2.4103    0.0000 H       1  UNL1        0.0266
     41 H           7.7827   -1.6301    0.0000 H       1  UNL1        0.0266
     42 H           5.3918    2.7839    0.0000 H       1  UNL1        0.1548
     43 H           2.5182    0.5071    0.0000 H       1  UNL1        0.0621
     44 H           6.4975   -2.8732    0.0000 H       1  UNL1        0.0230
     45 H           6.8926   -3.6559    0.0000 H       1  UNL1        0.0230
     46 H           7.6753   -3.2609    0.0000 H       1  UNL1        0.0230
     47 H           3.5408    3.6544    0.0000 H       1  UNL1        0.0636
     48 H           8.9434    0.9144    0.0000 H       1  UNL1        0.1028
     49 H           1.3940    1.7364    0.0000 H       1  UNL1        0.0618
     50 H           1.9088    3.3206    0.0000 H       1  UNL1        0.0618
     51 H           9.8942   -1.8552    0.0000 H       1  UNL1        0.0661
     52 H          10.7700   -1.8977    0.0000 H       1  UNL1        0.0661
     53 H          10.8125   -1.0219    0.0000 H       1  UNL1        0.0661
     54 H           8.5612    2.2866    0.0000 H       1  UNL1        0.0660
     55 H           8.1601    3.0663    0.0000 H       1  UNL1        0.0660
     56 H           7.3804    2.6652    0.0000 H       1  UNL1        0.0660
@<TRIPOS>BOND
     1     1    16    2
     2     2    23    1
     3     2    27    1
     4     3    24    1
     5     3    28    1
     6     4    23    2
     7     5     7    1
     8     5    13    1
     9     5    14    1
    10     6    16   am
    11     6    18    1
    12     6    42    1
    13     7     8    1
    14     7     9    1
    15     7    29    1
    16     8    10    1
    17     8    15    1
    18     8    16    1
    19     9    11    1
    20     9    30    1
    21     9    31    1
    22    10    13    1
    23    10    32    1
    24    10    33    1
    25    11    12    1
    26    11    19    1
    27    11    34    1
    28    12    14    1
    29    12    17    1
    30    12    35    1
    31    13    36    1
    32    13    37    1
    33    14    38    1
    34    14    39    1
    35    15    18   ar
    36    15    20   ar
    37    17    21    1
    38    17    40    1
    39    17    41    1
    40    18    22   ar
    41    19    23    1
    42    19    24    2
    43    20    25   ar
    44    20    43    1
    45    21    44    1
    46    21    45    1
    47    21    46    1
    48    22    26   ar
    49    22    47    1
    50    24    48    1
    51    25    26   ar
    52    25    49    1
    53    26    50    1
    54    27    51    1
    55    27    52    1
    56    27    53    1
    57    28    54    1
    58    28    55    1
    59    28    56    1
