@<TRIPOS>MOLECULE
IMPHY005951
 57 59 0 0 0
SMALL
GASTEIGER

@<TRIPOS>ATOM
      1 O           6.8750    3.6361    0.0000 O.3     1  UNL1       -0.3944
      2 O           8.3849    2.7874    0.0000 O.3     1  UNL1       -0.3944
      3 O           2.5369    0.3695    0.0000 O.3     1  UNL1       -0.3947
      4 O           4.7690   -4.1694    0.0000 O.3     1  UNL1       -0.4572
      5 O           6.0291   -2.9093    0.0000 O.2     1  UNL1       -0.2453
      6 C           6.0010    0.3695    0.0000 C.3     1  UNL1       -0.0254
      7 C           6.0010    1.3695    0.0000 C.3     1  UNL1       -0.0255
      8 C           5.1350   -0.1305    0.0000 C.3     1  UNL1       -0.0302
      9 C           6.8950    1.9041    0.0000 C.3     1  UNL1        0.0203
     10 C           6.8950   -0.1652    0.0000 C.3     1  UNL1       -0.0471
     11 C           5.1350    1.8695    0.0000 C.3     1  UNL1       -0.0487
     12 C           4.2690    0.3695    0.0000 C.3     1  UNL1       -0.0145
     13 C           7.8010    1.3903    0.0000 C.3     1  UNL1       -0.0429
     14 C           4.2690    1.3695    0.0000 C.3     1  UNL1       -0.0476
     15 C           7.8010    0.3486    0.0000 C.3     1  UNL1       -0.0519
     16 C           6.0010   -0.6305    0.0000 C.3     1  UNL1       -0.0590
     17 C           5.1350   -1.1305    0.0000 C.3     1  UNL1       -0.0452
     18 C           7.3849    2.7759    0.0000 C.3     1  UNL1        0.0522
     19 C           6.3850    2.7643    0.0000 C.3     1  UNL1        0.0522
     20 C           3.4030   -0.1305    0.0000 C.3     1  UNL1        0.0473
     21 C           4.2690   -1.6305    0.0000 C.3     1  UNL1       -0.0208
     22 C           4.2690   -2.6305    0.0000 C.2     1  UNL1        0.0358
     23 C           3.4600   -3.2183    0.0000 C.2     1  UNL1       -0.0371
     24 C           5.0780   -3.2183    0.0000 C.2     1  UNL1        0.3352
     25 C           3.7690   -4.1694    0.0000 C.3     1  UNL1        0.1118
     26 H           5.9945    2.2194    0.0000 H       1  UNL1        0.0313
     27 H           4.5981   -0.4405    0.0000 H       1  UNL1        0.0310
     28 H           6.4904   -0.6350    0.0000 H       1  UNL1        0.0271
     29 H           7.2886   -0.6442    0.0000 H       1  UNL1        0.0271
     30 H           3.7320    0.6795    0.0000 H       1  UNL1        0.0326
     31 H           5.5335    2.3444    0.0000 H       1  UNL1        0.0268
     32 H           4.7365    2.3444    0.0000 H       1  UNL1        0.0268
     33 H           8.4119    1.2842    0.0000 H       1  UNL1        0.0272
     34 H           8.0101    1.9740    0.0000 H       1  UNL1        0.0272
     35 H           4.0569    1.9521    0.0000 H       1  UNL1        0.0269
     36 H           3.6584    1.2618    0.0000 H       1  UNL1        0.0269
     37 H           8.0101   -0.2350    0.0000 H       1  UNL1        0.0266
     38 H           8.4119    0.4547    0.0000 H       1  UNL1        0.0266
     39 H           5.3810   -0.6305    0.0000 H       1  UNL1        0.0235
     40 H           6.0010   -1.2505    0.0000 H       1  UNL1        0.0235
     41 H           6.6210   -0.6305    0.0000 H       1  UNL1        0.0235
     42 H           5.3471   -1.7131    0.0000 H       1  UNL1        0.0271
     43 H           5.7456   -1.0229    0.0000 H       1  UNL1        0.0271
     44 H           5.9055    3.1573    0.0000 H       1  UNL1        0.0563
     45 H           7.4855    3.3877    0.0000 H       1  UNL1        0.0563
     46 H           6.7999    2.9812    0.0000 H       1  UNL1        0.0563
     47 H           5.9147    2.3603    0.0000 H       1  UNL1        0.0563
     48 H           3.0044   -0.6055    0.0000 H       1  UNL1        0.0560
     49 H           3.8015   -0.6055    0.0000 H       1  UNL1        0.0560
     50 H           4.0569   -1.0479    0.0000 H       1  UNL1        0.0315
     51 H           3.6584   -1.7382    0.0000 H       1  UNL1        0.0315
     52 H           8.6886    3.3279    0.0000 H       1  UNL1        0.2094
     53 H           6.5588    4.1694    0.0000 H       1  UNL1        0.2094
     54 H           2.0000    0.0595    0.0000 H       1  UNL1        0.2094
     55 H           2.8703   -3.0267    0.0000 H       1  UNL1        0.0610
     56 H           3.1625   -4.2983    0.0000 H       1  UNL1        0.0743
     57 H           3.8338   -4.7860    0.0000 H       1  UNL1        0.0743
@<TRIPOS>BOND
     1     1    19    1
     2     1    53    1
     3     2    18    1
     4     2    52    1
     5     3    20    1
     6     3    54    1
     7     4    24    1
     8     4    25    1
     9     5    24    2
    10     6     7    1
    11     6     8    1
    12     6    10    1
    13     6    16    1
    14     7     9    1
    15     7    11    1
    16     7    26    1
    17     8    12    1
    18     8    17    1
    19     8    27    1
    20     9    13    1
    21     9    18    1
    22     9    19    1
    23    10    15    1
    24    10    28    1
    25    10    29    1
    26    11    14    1
    27    11    31    1
    28    11    32    1
    29    12    14    1
    30    12    20    1
    31    12    30    1
    32    13    15    1
    33    13    33    1
    34    13    34    1
    35    14    35    1
    36    14    36    1
    37    15    37    1
    38    15    38    1
    39    16    39    1
    40    16    40    1
    41    16    41    1
    42    17    21    1
    43    17    42    1
    44    17    43    1
    45    18    45    1
    46    18    46    1
    47    19    44    1
    48    19    47    1
    49    20    48    1
    50    20    49    1
    51    21    22    1
    52    21    50    1
    53    21    51    1
    54    22    23    2
    55    22    24    1
    56    23    25    1
    57    23    55    1
    58    25    56    1
    59    25    57    1
