@<TRIPOS>MOLECULE
IMPHY015832
 21 20 0 0 0
SMALL
GASTEIGER

@<TRIPOS>ATOM
      1 O           2.8660    0.4400    0.0000 O.3     1  UNL1       -0.4649
      2 O           3.7320   -1.0600    0.0000 O.2     1  UNL1       -0.2456
      3 C           7.1962   -0.0600    0.0000 C.3     1  UNL1       -0.0525
      4 C           6.3301    0.4400    0.0000 C.3     1  UNL1       -0.0345
      5 C           8.0622    0.4400    0.0000 C.3     1  UNL1       -0.0650
      6 C           5.4641   -0.0600    0.0000 C.2     1  UNL1       -0.0773
      7 C           4.5981    0.4400    0.0000 C.2     1  UNL1        0.0186
      8 C           3.7320   -0.0600    0.0000 C.2     1  UNL1        0.3314
      9 C           2.0000   -0.0600    0.0000 C.3     1  UNL1        0.0820
     10 H           6.7976   -0.5349    0.0000 H       1  UNL1        0.0266
     11 H           7.5947   -0.5349    0.0000 H       1  UNL1        0.0266
     12 H           6.7287    0.9149    0.0000 H       1  UNL1        0.0307
     13 H           5.9316    0.9149    0.0000 H       1  UNL1        0.0307
     14 H           8.3722   -0.0969    0.0000 H       1  UNL1        0.0230
     15 H           8.5991    0.7500    0.0000 H       1  UNL1        0.0230
     16 H           7.7522    0.9769    0.0000 H       1  UNL1        0.0230
     17 H           5.4641   -0.6800    0.0000 H       1  UNL1        0.0574
     18 H           4.5981    1.0600    0.0000 H       1  UNL1        0.0686
     19 H           1.6900    0.4769    0.0000 H       1  UNL1        0.0661
     20 H           1.4631   -0.3700    0.0000 H       1  UNL1        0.0661
     21 H           2.3100   -0.5969    0.0000 H       1  UNL1        0.0661
@<TRIPOS>BOND
     1     1     8    1
     2     1     9    1
     3     2     8    2
     4     3     4    1
     5     3     5    1
     6     3    10    1
     7     3    11    1
     8     4     6    1
     9     4    12    1
    10     4    13    1
    11     5    14    1
    12     5    15    1
    13     5    16    1
    14     6     7    2
    15     6    17    1
    16     7     8    1
    17     7    18    1
    18     9    19    1
    19     9    20    1
    20     9    21    1
