@<TRIPOS>MOLECULE
IMPHY016083
 38 39 0 0 0
SMALL
GASTEIGER

@<TRIPOS>ATOM
      1 O           2.0000   -0.5000    0.0000 O.2     1  UNL1       -0.2960
      2 C           6.3301   -0.0000    0.0000 C.3     1  UNL1       -0.0048
      3 C           7.2241   -0.5347    0.0000 C.3     1  UNL1       -0.0342
      4 C           6.3301    1.0000    0.0000 C.2     1  UNL1       -0.0667
      5 C           5.4641   -0.5000    0.0000 C.3     1  UNL1       -0.0217
      6 C           8.1301   -0.0208    0.0000 C.3     1  UNL1       -0.0462
      7 C           5.4641    1.5000    0.0000 C.3     1  UNL1       -0.0275
      8 C           6.3301   -1.0000    0.0000 C.3     1  UNL1       -0.0553
      9 C           4.5981   -0.0000    0.0000 C.2     1  UNL1       -0.0625
     10 C           8.1301    1.0208    0.0000 C.3     1  UNL1       -0.0342
     11 C           4.5981    1.0000    0.0000 C.3     1  UNL1       -0.0274
     12 C           7.2241    1.5346    0.0000 C.2     1  UNL1       -0.0842
     13 C           7.2125   -1.5346    0.0000 C.3     1  UNL1       -0.0616
     14 C           3.7320   -0.5000    0.0000 C.2     1  UNL1       -0.0120
     15 C           3.7320   -1.5000    0.0000 C.3     1  UNL1       -0.0367
     16 C           2.8660   -0.0000    0.0000 C.2     1  UNL1        0.1459
     17 H           7.7580   -0.8499    0.0000 H       1  UNL1        0.0307
     18 H           5.0656   -0.9750    0.0000 H       1  UNL1        0.0319
     19 H           5.8626   -0.9750    0.0000 H       1  UNL1        0.0319
     20 H           8.3392   -0.6045    0.0000 H       1  UNL1        0.0271
     21 H           8.7410    0.0852    0.0000 H       1  UNL1        0.0271
     22 H           5.8626    1.9749    0.0000 H       1  UNL1        0.0313
     23 H           5.0656    1.9749    0.0000 H       1  UNL1        0.0313
     24 H           5.7101   -1.0000    0.0000 H       1  UNL1        0.0238
     25 H           6.3301   -1.6200    0.0000 H       1  UNL1        0.0238
     26 H           6.9501   -1.0000    0.0000 H       1  UNL1        0.0238
     27 H           8.7410    0.9147    0.0000 H       1  UNL1        0.0307
     28 H           8.3392    1.6045    0.0000 H       1  UNL1        0.0307
     29 H           4.3860    1.5826    0.0000 H       1  UNL1        0.0313
     30 H           3.9875    0.8923    0.0000 H       1  UNL1        0.0313
     31 H           7.2169    2.1546    0.0000 H       1  UNL1        0.0572
     32 H           6.5926   -1.5275    0.0000 H       1  UNL1        0.0233
     33 H           7.2053   -2.1546    0.0000 H       1  UNL1        0.0233
     34 H           7.8325   -1.5418    0.0000 H       1  UNL1        0.0233
     35 H           3.1120   -1.5000    0.0000 H       1  UNL1        0.0278
     36 H           3.7320   -2.1200    0.0000 H       1  UNL1        0.0278
     37 H           4.3520   -1.5000    0.0000 H       1  UNL1        0.0278
     38 H           2.8660    0.6200    0.0000 H       1  UNL1        0.1078
@<TRIPOS>BOND
     1     1    16    2
     2     2     3    1
     3     2     4    1
     4     2     5    1
     5     2     8    1
     6     3     6    1
     7     3    13    1
     8     3    17    1
     9     4     7    1
    10     4    12    2
    11     5     9    1
    12     5    18    1
    13     5    19    1
    14     6    10    1
    15     6    20    1
    16     6    21    1
    17     7    11    1
    18     7    22    1
    19     7    23    1
    20     8    24    1
    21     8    25    1
    22     8    26    1
    23     9    11    1
    24     9    14    2
    25    10    12    1
    26    10    27    1
    27    10    28    1
    28    11    29    1
    29    11    30    1
    30    12    31    1
    31    13    32    1
    32    13    33    1
    33    13    34    1
    34    14    15    1
    35    14    16    1
    36    15    35    1
    37    15    36    1
    38    15    37    1
    39    16    38    1
