@<TRIPOS>MOLECULE
IMPHY007722
 82 86 0 0 0
SMALL
GASTEIGER

@<TRIPOS>ATOM
      1 O           9.3052    3.2042    0.0000 O.3     1  UNL1       -0.3843
      2 O          11.1246    2.1724    0.0000 O.2     1  UNL1       -0.2944
      3 C           6.6507   -1.4720    0.0000 C.3     1  UNL1       -0.0231
      4 C           5.7847   -0.9720    0.0000 C.3     1  UNL1       -0.0230
      5 C           7.5167   -0.9720    0.0000 C.3     1  UNL1       -0.0294
      6 C           7.5167    0.0280    0.0000 C.3     1  UNL1       -0.0253
      7 C           4.8746   -1.4788    0.0000 C.3     1  UNL1       -0.0292
      8 C           8.4106    0.5627    0.0000 C.3     1  UNL1       -0.0266
      9 C           4.8666   -2.5204    0.0000 C.3     1  UNL1       -0.0287
     10 C           5.7847    0.0280    0.0000 C.3     1  UNL1       -0.0463
     11 C           6.6507    0.5280    0.0000 C.3     1  UNL1       -0.0466
     12 C           6.6667   -2.5135    0.0000 C.3     1  UNL1       -0.0463
     13 C           9.3167    0.0488    0.0000 C.3     1  UNL1       -0.0193
     14 C           8.4106   -1.5067    0.0000 C.3     1  UNL1       -0.0487
     15 C           5.7687   -3.0413    0.0000 C.3     1  UNL1       -0.0468
     16 C           9.3167   -0.9928    0.0000 C.3     1  UNL1       -0.0464
     17 C           3.9478   -0.9148    0.0000 C.3     1  UNL1       -0.0440
     18 C           7.5167   -1.9720    0.0000 C.3     1  UNL1       -0.0588
     19 C           4.9186   -0.4720    0.0000 C.3     1  UNL1       -0.0588
     20 C           3.9312   -3.0702    0.0000 C.3     1  UNL1       -0.0469
     21 C           7.5167    1.0280    0.0000 C.3     1  UNL1       -0.0590
     22 C           2.9999   -1.4427    0.0000 C.3     1  UNL1       -0.0346
     23 C           8.3856    1.6474    0.0000 C.3     1  UNL1       -0.0161
     24 C          10.2605    0.5841    0.0000 C.3     1  UNL1        0.0229
     25 C           2.9916   -2.5277    0.0000 C.3     1  UNL1       -0.0474
     26 C           4.8589   -3.5204    0.0000 C.3     1  UNL1       -0.0593
     27 C          10.1866   -0.4445    0.0000 C.3     1  UNL1       -0.0587
     28 C           9.3167    2.2043    0.0000 C.3     1  UNL1        0.1135
     29 C          10.2605    1.6690    0.0000 C.2     1  UNL1        0.1648
     30 C           2.0000   -1.4311    0.0000 C.3     1  UNL1       -0.0598
     31 C           2.5100   -0.5710    0.0000 C.3     1  UNL1       -0.0598
     32 C          11.1246    0.0807    0.0000 C.3     1  UNL1       -0.0551
     33 H           8.2561   -0.5527    0.0000 H       1  UNL1        0.0312
     34 H           5.6058   -1.9123    0.0000 H       1  UNL1        0.0312
     35 H           9.1401    0.9990    0.0000 H       1  UNL1        0.0312
     36 H           5.5726    0.6106    0.0000 H       1  UNL1        0.0271
     37 H           5.1741   -0.0797    0.0000 H       1  UNL1        0.0271
     38 H           7.0492    1.0030    0.0000 H       1  UNL1        0.0271
     39 H           6.2522    1.0030    0.0000 H       1  UNL1        0.0271
     40 H           6.8848   -3.0939    0.0000 H       1  UNL1        0.0271
     41 H           7.2759   -2.3980    0.0000 H       1  UNL1        0.0271
     42 H           8.0060   -1.9764    0.0000 H       1  UNL1        0.0268
     43 H           8.8043   -1.9857    0.0000 H       1  UNL1        0.0268
     44 H           5.3714   -3.5172    0.0000 H       1  UNL1        0.0271
     45 H           6.1697   -3.5142    0.0000 H       1  UNL1        0.0271
     46 H           9.5258   -1.5765    0.0000 H       1  UNL1        0.0271
     47 H           9.9276   -0.8867    0.0000 H       1  UNL1        0.0271
     48 H           4.3560   -0.4481    0.0000 H       1  UNL1        0.0273
     49 H           3.5579   -0.4327    0.0000 H       1  UNL1        0.0273
     50 H           7.2067   -2.5089    0.0000 H       1  UNL1        0.0235
     51 H           8.0536   -2.2820    0.0000 H       1  UNL1        0.0235
     52 H           7.8267   -1.4351    0.0000 H       1  UNL1        0.0235
     53 H           5.2286    0.0649    0.0000 H       1  UNL1        0.0235
     54 H           4.3817   -0.1620    0.0000 H       1  UNL1        0.0235
     55 H           4.6086   -1.0089    0.0000 H       1  UNL1        0.0235
     56 H           3.5339   -3.5461    0.0000 H       1  UNL1        0.0271
     57 H           4.3322   -3.5431    0.0000 H       1  UNL1        0.0271
     58 H           8.1367    1.0280    0.0000 H       1  UNL1        0.0235
     59 H           7.5167    1.6480    0.0000 H       1  UNL1        0.0235
     60 H           6.8967    1.0280    0.0000 H       1  UNL1        0.0235
     61 H           8.1631    2.2261    0.0000 H       1  UNL1        0.0297
     62 H           7.7773    1.5272    0.0000 H       1  UNL1        0.0297
     63 H          10.7980    0.8930    0.0000 H       1  UNL1        0.0381
     64 H           2.3816   -2.4169    0.0000 H       1  UNL1        0.0271
     65 H           2.7780   -3.1097    0.0000 H       1  UNL1        0.0271
     66 H           4.2389   -3.5156    0.0000 H       1  UNL1        0.0235
     67 H           4.8541   -4.1404    0.0000 H       1  UNL1        0.0235
     68 H           5.4789   -3.5252    0.0000 H       1  UNL1        0.0235
     69 H           9.8807   -0.9838    0.0000 H       1  UNL1        0.0235
     70 H          10.7259   -0.7503    0.0000 H       1  UNL1        0.0235
     71 H          10.4924    0.0948    0.0000 H       1  UNL1        0.0235
     72 H           9.8506    2.5194    0.0000 H       1  UNL1        0.0673
     73 H           2.0072   -0.8112    0.0000 H       1  UNL1        0.0235
     74 H           1.3800   -1.4240    0.0000 H       1  UNL1        0.0235
     75 H           1.9928   -2.0511    0.0000 H       1  UNL1        0.0235
     76 H           3.0505   -0.2672    0.0000 H       1  UNL1        0.0235
     77 H           2.2062   -0.0305    0.0000 H       1  UNL1        0.0235
     78 H           1.9695   -0.8747    0.0000 H       1  UNL1        0.0235
     79 H          10.8125   -0.4550    0.0000 H       1  UNL1        0.0237
     80 H          11.6603   -0.2313    0.0000 H       1  UNL1        0.0237
     81 H          11.4367    0.6165    0.0000 H       1  UNL1        0.0237
     82 H           9.8385    3.5204    0.0000 H       1  UNL1        0.2104
@<TRIPOS>BOND
     1    28     1    1
     2     1    82    1
     3     2    29    2
     4     3     4    1
     5     3     5    1
     6     3    12    1
     7     3    18    1
     8     4     7    1
     9     4    10    1
    10     4    19    1
    11     5     6    1
    12     5    14    1
    13     5    33    1
    14     6     8    1
    15     6    11    1
    16     6    21    1
    17     7     9    1
    18     7    17    1
    19     7    34    1
    20     8    13    1
    21     8    23    1
    22     8    35    1
    23     9    15    1
    24     9    20    1
    25     9    26    1
    26    10    11    1
    27    10    36    1
    28    10    37    1
    29    11    38    1
    30    11    39    1
    31    12    15    1
    32    12    40    1
    33    12    41    1
    34    13    16    1
    35    13    24    1
    36    13    27    1
    37    14    16    1
    38    14    42    1
    39    14    43    1
    40    15    44    1
    41    15    45    1
    42    16    46    1
    43    16    47    1
    44    17    22    1
    45    17    48    1
    46    17    49    1
    47    18    50    1
    48    18    51    1
    49    18    52    1
    50    19    53    1
    51    19    54    1
    52    19    55    1
    53    20    25    1
    54    20    56    1
    55    20    57    1
    56    21    58    1
    57    21    59    1
    58    21    60    1
    59    22    25    1
    60    22    30    1
    61    22    31    1
    62    23    28    1
    63    23    61    1
    64    23    62    1
    65    24    29    1
    66    24    32    1
    67    24    63    1
    68    25    64    1
    69    25    65    1
    70    26    66    1
    71    26    67    1
    72    26    68    1
    73    27    69    1
    74    27    70    1
    75    27    71    1
    76    28    29    1
    77    28    72    1
    78    30    73    1
    79    30    74    1
    80    30    75    1
    81    31    76    1
    82    31    77    1
    83    31    78    1
    84    32    79    1
    85    32    80    1
    86    32    81    1
