@<TRIPOS>MOLECULE
IMPHY002338
 72 76 0 0 0
SMALL
GASTEIGER

@<TRIPOS>ATOM
      1 O           7.1640    1.5917    0.0000 O.3     1  UNL1       -0.3876
      2 O           9.2970   -0.1765    0.0000 O.3     1  UNL1       -0.4547
      3 O           2.9755    0.3924    0.0000 O.2     1  UNL1       -0.2918
      4 O           9.9015    2.3992    0.0000 O.3     1  UNL1       -0.3838
      5 O          10.3127   -1.5796    0.0000 O.2     1  UNL1       -0.2452
      6 O          12.7428    0.1796    0.0000 O.3     1  UNL1       -0.3902
      7 C           6.5251    0.3354    0.0000 C.3     1  UNL1        0.0002
      8 C           6.5251   -0.6646    0.0000 C.3     1  UNL1       -0.0295
      9 C           7.4714    0.6401    0.0000 C.3     1  UNL1        0.0777
     10 C           5.6591   -1.1646    0.0000 C.3     1  UNL1       -0.0302
     11 C           4.7931   -0.6646    0.0000 C.3     1  UNL1       -0.0215
     12 C           5.6591    0.8354    0.0000 C.3     1  UNL1       -0.0444
     13 C           7.4714   -0.9694    0.0000 C.3     1  UNL1       -0.0467
     14 C           8.0550   -0.1646    0.0000 C.3     1  UNL1       -0.0228
     15 C           4.7931    0.3354    0.0000 C.3     1  UNL1       -0.0482
     16 C           3.8831   -1.1715    0.0000 C.3     1  UNL1        0.0544
     17 C           8.2814    1.2265    0.0000 C.3     1  UNL1        0.0255
     18 C           6.5251    1.3354    0.0000 C.3     1  UNL1       -0.0567
     19 C           5.6752   -2.2061    0.0000 C.3     1  UNL1       -0.0311
     20 C           3.8751   -2.2131    0.0000 C.2     1  UNL1       -0.0562
     21 C           9.1942    0.8182    0.0000 C.3     1  UNL1        0.1381
     22 C           4.7771   -2.7339    0.0000 C.2     1  UNL1       -0.0832
     23 C           3.8908   -0.1715    0.0000 C.3     1  UNL1       -0.0485
     24 C           8.1786    2.2212    0.0000 C.3     1  UNL1       -0.0563
     25 C           2.9562   -0.6074    0.0000 C.2     1  UNL1        0.1659
     26 C           2.9396   -2.7628    0.0000 C.3     1  UNL1       -0.0122
     27 C          10.0043    1.4046    0.0000 C.3     1  UNL1        0.1140
     28 C           2.0084   -1.1354    0.0000 C.2     1  UNL1       -0.0220
     29 C           2.0000   -2.2203    0.0000 C.2     1  UNL1       -0.0767
     30 C          10.9171    0.9962    0.0000 C.2     1  UNL1       -0.0289
     31 C          10.2099   -0.5849    0.0000 C.2     1  UNL1        0.3378
     32 C          11.0199    0.0015    0.0000 C.2     1  UNL1        0.0632
     33 C          11.7271    1.5826    0.0000 C.3     1  UNL1       -0.0404
     34 C          11.9328   -0.4068    0.0000 C.3     1  UNL1        0.0760
     35 H           6.6151   -1.5099    0.0000 H       1  UNL1        0.0310
     36 H           6.3985   -1.5840    0.0000 H       1  UNL1        0.0310
     37 H           5.5292   -0.2396    0.0000 H       1  UNL1        0.0316
     38 H           6.0576    1.3103    0.0000 H       1  UNL1        0.0272
     39 H           5.2606    1.3103    0.0000 H       1  UNL1        0.0272
     40 H           7.2203   -1.5363    0.0000 H       1  UNL1        0.0269
     41 H           8.0087   -1.2786    0.0000 H       1  UNL1        0.0269
     42 H           8.5158   -0.5794    0.0000 H       1  UNL1        0.0293
     43 H           8.5158    0.2501    0.0000 H       1  UNL1        0.0293
     44 H           4.5810    0.9180    0.0000 H       1  UNL1        0.0269
     45 H           4.1825    0.2277    0.0000 H       1  UNL1        0.0269
     46 H           8.7836    1.5900    0.0000 H       1  UNL1        0.0363
     47 H           7.1451    1.3354    0.0000 H       1  UNL1        0.0236
     48 H           6.5251    1.9554    0.0000 H       1  UNL1        0.0236
     49 H           5.9051    1.3354    0.0000 H       1  UNL1        0.0236
     50 H           5.8932   -2.7865    0.0000 H       1  UNL1        0.0310
     51 H           6.2843   -2.0906    0.0000 H       1  UNL1        0.0310
     52 H           8.5057    0.3197    0.0000 H       1  UNL1        0.0767
     53 H           4.7795   -3.3539    0.0000 H       1  UNL1        0.0572
     54 H           7.5796    2.0517    0.0000 H       1  UNL1        0.2102
     55 H           4.5108   -0.1763    0.0000 H       1  UNL1        0.0242
     56 H           3.8956    0.4485    0.0000 H       1  UNL1        0.0242
     57 H           3.2708   -0.1667    0.0000 H       1  UNL1        0.0242
     58 H           8.7953    2.2849    0.0000 H       1  UNL1        0.0234
     59 H           8.1148    2.8379    0.0000 H       1  UNL1        0.0234
     60 H           7.5619    2.1574    0.0000 H       1  UNL1        0.0234
     61 H           2.5423   -3.2388    0.0000 H       1  UNL1        0.0353
     62 H           3.3406   -3.2357    0.0000 H       1  UNL1        0.0353
     63 H           9.4383    1.6577    0.0000 H       1  UNL1        0.0678
     64 H           1.4750   -0.8192    0.0000 H       1  UNL1        0.0649
     65 H           1.4619   -2.5282    0.0000 H       1  UNL1        0.0576
     66 H          10.4037    2.7628    0.0000 H       1  UNL1        0.2104
     67 H          12.0907    1.0804    0.0000 H       1  UNL1        0.0275
     68 H          12.2294    1.9462    0.0000 H       1  UNL1        0.0275
     69 H          11.3636    2.0848    0.0000 H       1  UNL1        0.0275
     70 H          11.5852   -0.9202    0.0000 H       1  UNL1        0.0609
     71 H          12.3780   -0.8382    0.0000 H       1  UNL1        0.0609
     72 H          13.3087   -0.0736    0.0000 H       1  UNL1        0.2099
@<TRIPOS>BOND
     1     9     1    1
     2     1    54    1
     3     2    21    1
     4     2    31    1
     5     3    25    2
     6    27     4    1
     7     4    66    1
     8     5    31    2
     9     6    34    1
    10     6    72    1
    11     7     8    1
    12     7     9    1
    13     7    12    1
    14     7    18    1
    15     8    10    1
    16     8    13    1
    17     8    35    1
    18     9    14    1
    19     9    17    1
    20    10    11    1
    21    10    19    1
    22    10    36    1
    23    11    15    1
    24    11    16    1
    25    11    37    1
    26    12    15    1
    27    12    38    1
    28    12    39    1
    29    13    14    1
    30    13    40    1
    31    13    41    1
    32    14    42    1
    33    14    43    1
    34    15    44    1
    35    15    45    1
    36    16    20    1
    37    16    23    1
    38    16    25    1
    39    17    21    1
    40    17    24    1
    41    17    46    1
    42    18    47    1
    43    18    48    1
    44    18    49    1
    45    19    22    1
    46    19    50    1
    47    19    51    1
    48    20    22    2
    49    20    26    1
    50    21    27    1
    51    21    52    1
    52    22    53    1
    53    23    55    1
    54    23    56    1
    55    23    57    1
    56    24    58    1
    57    24    59    1
    58    24    60    1
    59    25    28    1
    60    26    29    1
    61    26    61    1
    62    26    62    1
    63    27    30    1
    64    27    63    1
    65    28    29    2
    66    28    64    1
    67    29    65    1
    68    30    32    2
    69    30    33    1
    70    31    32    1
    71    32    34    1
    72    33    67    1
    73    33    68    1
    74    33    69    1
    75    34    70    1
    76    34    71    1
