@<TRIPOS>MOLECULE
IMPHY009956
 15 16 0 0 0
SMALL
GASTEIGER

@<TRIPOS>ATOM
      1 O           4.6783   -0.8047    0.0000 O.2     1  UNL1       -0.4629
      2 C           3.7320    0.5000    0.0000 C.ar    1  UNL1        0.0201
      3 C           3.7320   -0.5000    0.0000 C.ar    1  UNL1        0.1348
      4 C           2.8660    1.0000    0.0000 C.ar    1  UNL1       -0.0510
      5 C           4.6783    0.8047    0.0000 C.ar    1  UNL1       -0.0161
      6 C           2.8660   -1.0000    0.0000 C.ar    1  UNL1       -0.0188
      7 C           2.0000    0.5000    0.0000 C.ar    1  UNL1       -0.0610
      8 C           2.0000   -0.5000    0.0000 C.ar    1  UNL1       -0.0582
      9 C           5.2619    0.0000    0.0000 C.ar    1  UNL1        0.0931
     10 H           2.8660    1.6200    0.0000 H       1  UNL1        0.0625
     11 H           4.8709    1.3940    0.0000 H       1  UNL1        0.0655
     12 H           2.8660   -1.6200    0.0000 H       1  UNL1        0.0654
     13 H           1.4631    0.8100    0.0000 H       1  UNL1        0.0618
     14 H           1.4631   -0.8100    0.0000 H       1  UNL1        0.0619
     15 H           5.8819    0.0000    0.0000 H       1  UNL1        0.1029
@<TRIPOS>BOND
     1     1     3   ar
     2     1     9   ar
     3     2     3   ar
     4     2     4   ar
     5     2     5   ar
     6     3     6   ar
     7     4     7   ar
     8     4    10    1
     9     5     9   ar
    10     5    11    1
    11     6     8   ar
    12     6    12    1
    13     7     8   ar
    14     7    13    1
    15     8    14    1
    16     9    15    1
