@<TRIPOS>MOLECULE
IMPHY000217
 144 151 0 0 0
SMALL
GASTEIGER

@<TRIPOS>ATOM
      1 O           6.8671   -6.9076    0.0000 O.3     1  UNL1       -0.3443
      2 O           8.6209    2.3718    0.0000 O.3     1  UNL1       -0.4318
      3 O           9.3112   -6.2159    0.0000 O.3     1  UNL1       -0.4802
      4 O           7.8180   -7.0935    0.0000 O.2     1  UNL1       -0.2503
      5 O           9.5042    0.8820    0.0000 O.2     1  UNL1       -0.2501
      6 O           5.1350   -6.9076    0.0000 O.3     1  UNL1       -0.3405
      7 O           9.4695    3.8818    0.0000 O.3     1  UNL1       -0.3312
      8 O           6.8671   -8.9076    0.0000 O.3     1  UNL1       -0.3841
      9 O           5.1350   -9.9076    0.0000 O.3     1  UNL1       -0.3864
     10 O          10.3644    1.3920    0.0000 O.3     1  UNL1       -0.3829
     11 O           3.4030   -8.9076    0.0000 O.3     1  UNL1       -0.3865
     12 O          12.0847    2.4119    0.0000 O.3     1  UNL1       -0.3864
     13 O          12.0616    4.4118    0.0000 O.3     1  UNL1       -0.3865
     14 O           2.5369   -7.4076    0.0000 O.3     1  UNL1       -0.3924
     15 O           9.4464    5.8816    0.0000 O.3     1  UNL1       -0.3460
     16 O          10.2950    7.3916    0.0000 O.3     1  UNL1       -0.3405
     17 O           7.7029    6.8615    0.0000 O.3     1  UNL1       -0.3841
     18 O           7.6797    8.8614    0.0000 O.3     1  UNL1       -0.3864
     19 O           9.4001    9.8814    0.0000 O.3     1  UNL1       -0.3865
     20 O          11.1320    9.9014    0.0000 O.3     1  UNL1       -0.3924
     21 C           7.7681   -2.2074    0.0000 C.3     1  UNL1       -0.0194
     22 C           6.9040   -2.7107    0.0000 C.3     1  UNL1       -0.0257
     23 C           6.8920   -3.7523    0.0000 C.3     1  UNL1       -0.0244
     24 C           7.7643   -1.2074    0.0000 C.3     1  UNL1       -0.0051
     25 C           7.7920   -4.2765    0.0000 C.3     1  UNL1       -0.0174
     26 C           8.6801   -2.7107    0.0000 C.3     1  UNL1       -0.0463
     27 C           6.8963   -0.7107    0.0000 C.2     1  UNL1       -0.0629
     28 C           8.6921   -3.7523    0.0000 C.3     1  UNL1       -0.0481
     29 C           7.8046   -5.3615    0.0000 C.3     1  UNL1        0.0941
     30 C           6.8762    0.3307    0.0000 C.3     1  UNL1       -0.0031
     31 C           6.0361   -2.2140    0.0000 C.3     1  UNL1       -0.0306
     32 C           8.6723   -0.6970    0.0000 C.3     1  UNL1       -0.0424
     33 C           5.9421   -4.2765    0.0000 C.3     1  UNL1       -0.0447
     34 C           7.7722    0.8619    0.0000 C.3     1  UNL1        0.0744
     35 C           8.7522   -2.0299    0.0000 C.3     1  UNL1       -0.0585
     36 C           8.6763    0.3446    0.0000 C.3     1  UNL1       -0.0359
     37 C           6.8671   -5.9076    0.0000 C.3     1  UNL1        0.0775
     38 C           6.0322   -1.2140    0.0000 C.2     1  UNL1       -0.0836
     39 C           6.0279   -3.2489    0.0000 C.3     1  UNL1       -0.0590
     40 C           5.9295   -5.3615    0.0000 C.3     1  UNL1       -0.0249
     41 C           8.7497   -1.3772    0.0000 C.3     1  UNL1       -0.0553
     42 C           5.9223    0.8477    0.0000 C.3     1  UNL1       -0.0403
     43 C           7.7764    1.9469    0.0000 C.3     1  UNL1       -0.0362
     44 C           5.9014    1.9325    0.0000 C.3     1  UNL1       -0.0343
     45 C           6.8347    2.4858    0.0000 C.3     1  UNL1       -0.0468
     46 C           8.8046   -5.3538    0.0000 C.3     1  UNL1       -0.0467
     47 C           8.3113   -6.2236    0.0000 C.2     1  UNL1        0.3135
     48 C           8.6324    1.3719    0.0000 C.2     1  UNL1        0.3161
     49 C           5.3881    2.7907    0.0000 C.3     1  UNL1       -0.0598
     50 C           4.9015    1.9170    0.0000 C.3     1  UNL1       -0.0598
     51 C           6.0010   -7.4076    0.0000 C.3     1  UNL1        0.1882
     52 C           6.0010   -8.4076    0.0000 C.3     1  UNL1        0.1341
     53 C           9.4810    2.8818    0.0000 C.3     1  UNL1        0.2337
     54 C           5.1350   -8.9076    0.0000 C.3     1  UNL1        0.1141
     55 C           4.2690   -7.4076    0.0000 C.3     1  UNL1        0.1130
     56 C          10.3528    2.3919    0.0000 C.3     1  UNL1        0.1455
     57 C           4.2690   -8.4076    0.0000 C.3     1  UNL1        0.1119
     58 C          11.2130    2.9019    0.0000 C.3     1  UNL1        0.1152
     59 C          10.3297    4.3918    0.0000 C.3     1  UNL1        0.1144
     60 C          11.2014    3.9018    0.0000 C.3     1  UNL1        0.1120
     61 C           3.4030   -6.9076    0.0000 C.3     1  UNL1        0.0730
     62 C          10.3181    5.3917    0.0000 C.3     1  UNL1        0.0796
     63 C           9.4348    6.8816    0.0000 C.3     1  UNL1        0.1880
     64 C           8.5630    7.3715    0.0000 C.3     1  UNL1        0.1341
     65 C           8.5515    8.3714    0.0000 C.3     1  UNL1        0.1141
     66 C          10.2834    8.3915    0.0000 C.3     1  UNL1        0.1130
     67 C           9.4117    8.8814    0.0000 C.3     1  UNL1        0.1119
     68 C          11.1436    8.9015    0.0000 C.3     1  UNL1        0.0730
     69 H           7.6385   -3.1385    0.0000 H       1  UNL1        0.0315
     70 H           8.5314   -4.6959    0.0000 H       1  UNL1        0.0317
     71 H           9.2921   -2.8097    0.0000 H       1  UNL1        0.0271
     72 H           8.8824   -2.1246    0.0000 H       1  UNL1        0.0271
     73 H           8.9079   -4.3335    0.0000 H       1  UNL1        0.0269
     74 H           9.3017   -3.6391    0.0000 H       1  UNL1        0.0269
     75 H           6.1502   -0.1112    0.0000 H       1  UNL1        0.0357
     76 H           5.4251   -2.1087    0.0000 H       1  UNL1        0.0310
     77 H           5.8263   -2.7975    0.0000 H       1  UNL1        0.0310
     78 H           8.8791   -1.2815    0.0000 H       1  UNL1        0.0274
     79 H           9.2836   -0.5933    0.0000 H       1  UNL1        0.0274
     80 H           5.7398   -3.6905    0.0000 H       1  UNL1        0.0271
     81 H           5.3300   -4.3756    0.0000 H       1  UNL1        0.0271
     82 H           8.8623   -2.6401    0.0000 H       1  UNL1        0.0235
     83 H           9.3624   -1.9199    0.0000 H       1  UNL1        0.0235
     84 H           8.6422   -1.4198    0.0000 H       1  UNL1        0.0235
     85 H           9.2868    0.2362    0.0000 H       1  UNL1        0.0276
     86 H           8.8876    0.9275    0.0000 H       1  UNL1        0.0276
     87 H           7.4046   -6.2166    0.0000 H       1  UNL1        0.0608
     88 H           5.4941   -0.9061    0.0000 H       1  UNL1        0.0572
     89 H           6.3400   -2.7132    0.0000 H       1  UNL1        0.0235
     90 H           5.4922   -2.9369    0.0000 H       1  UNL1        0.0235
     91 H           5.7158   -3.7847    0.0000 H       1  UNL1        0.0235
     92 H           5.3199   -5.2483    0.0000 H       1  UNL1        0.0291
     93 H           5.7137   -5.9427    0.0000 H       1  UNL1        0.0291
     94 H           8.6444   -1.9882    0.0000 H       1  UNL1        0.0238
     95 H           9.3607   -1.4825    0.0000 H       1  UNL1        0.0238
     96 H           8.8550   -0.7662    0.0000 H       1  UNL1        0.0238
     97 H           5.3095    0.9420    0.0000 H       1  UNL1        0.0276
     98 H           5.7246    0.2601    0.0000 H       1  UNL1        0.0276
     99 H           8.3869    1.8385    0.0000 H       1  UNL1        0.0276
    100 H           7.9877    2.5298    0.0000 H       1  UNL1        0.0276
    101 H           7.2302    2.9633    0.0000 H       1  UNL1        0.0271
    102 H           6.4319    2.9571    0.0000 H       1  UNL1        0.0271
    103 H           8.8094   -5.9737    0.0000 H       1  UNL1        0.0241
    104 H           9.4246   -5.3490    0.0000 H       1  UNL1        0.0241
    105 H           8.7998   -4.7338    0.0000 H       1  UNL1        0.0241
    106 H           4.8920    2.5370    0.0000 H       1  UNL1        0.0235
    107 H           4.2816    1.9075    0.0000 H       1  UNL1        0.0235
    108 H           4.9111    1.2971    0.0000 H       1  UNL1        0.0235
    109 H           5.9202    3.1089    0.0000 H       1  UNL1        0.0235
    110 H           5.0699    3.3228    0.0000 H       1  UNL1        0.0235
    111 H           4.8560    2.4724    0.0000 H       1  UNL1        0.0235
    112 H           6.0010   -6.7876    0.0000 H       1  UNL1        0.0937
    113 H           9.6254   -6.7504    0.0000 H       1  UNL1        0.2951
    114 H           6.0010   -9.0276    0.0000 H       1  UNL1        0.0671
    115 H           9.4882    2.2619    0.0000 H       1  UNL1        0.1085
    116 H           4.5981   -9.2176    0.0000 H       1  UNL1        0.0648
    117 H           4.2690   -6.7876    0.0000 H       1  UNL1        0.0647
    118 H          10.8933    2.0881    0.0000 H       1  UNL1        0.0683
    119 H           3.7320   -8.0976    0.0000 H       1  UNL1        0.0647
    120 H           6.8671   -9.5276    0.0000 H       1  UNL1        0.2101
    121 H          11.7463    3.2180    0.0000 H       1  UNL1        0.0648
    122 H           9.7892    4.6955    0.0000 H       1  UNL1        0.0647
    123 H          11.1943    4.5218    0.0000 H       1  UNL1        0.0647
    124 H           3.8015   -6.4326    0.0000 H       1  UNL1        0.0584
    125 H           3.0044   -6.4326    0.0000 H       1  UNL1        0.0584
    126 H           4.5981  -10.2176    0.0000 H       1  UNL1        0.2100
    127 H          10.9049    1.0882    0.0000 H       1  UNL1        0.2102
    128 H           3.4030   -9.5276    0.0000 H       1  UNL1        0.2100
    129 H          10.9299    5.2911    0.0000 H       1  UNL1        0.0587
    130 H          10.5234    5.9767    0.0000 H       1  UNL1        0.0587
    131 H          12.6181    2.7281    0.0000 H       1  UNL1        0.2100
    132 H          12.0544    5.0317    0.0000 H       1  UNL1        0.2100
    133 H           2.0000   -7.0976    0.0000 H       1  UNL1        0.2095
    134 H           8.9015    6.5654    0.0000 H       1  UNL1        0.0937
    135 H           8.0226    7.6753    0.0000 H       1  UNL1        0.0671
    136 H           8.5443    8.9914    0.0000 H       1  UNL1        0.0648
    137 H          10.8239    8.0877    0.0000 H       1  UNL1        0.0647
    138 H           9.9450    9.1976    0.0000 H       1  UNL1        0.0647
    139 H           7.1624    7.1653    0.0000 H       1  UNL1        0.2101
    140 H          11.3624    8.3213    0.0000 H       1  UNL1        0.0584
    141 H          11.7529    9.0162    0.0000 H       1  UNL1        0.0584
    142 H           7.6726    9.4814    0.0000 H       1  UNL1        0.2100
    143 H           8.8596   10.1851    0.0000 H       1  UNL1        0.2100
    144 H          11.6654   10.2176    0.0000 H       1  UNL1        0.2095
@<TRIPOS>BOND
     1    37     1    1
     2    51     1    1
     3     2    48    1
     4    53     2    1
     5     3    47    1
     6     3   113    1
     7     4    47    2
     8     5    48    2
     9     6    51    1
    10     6    55    1
    11     7    53    1
    12     7    59    1
    13    52     8    1
    14     8   120    1
    15    54     9    1
    16     9   126    1
    17    56    10    1
    18    10   127    1
    19    57    11    1
    20    11   128    1
    21    58    12    1
    22    12   131    1
    23    60    13    1
    24    13   132    1
    25    14    61    1
    26    14   133    1
    27    15    62    1
    28    63    15    1
    29    16    63    1
    30    16    66    1
    31    64    17    1
    32    17   139    1
    33    65    18    1
    34    18   142    1
    35    67    19    1
    36    19   143    1
    37    20    68    1
    38    20   144    1
    39    21    22    1
    40    21    24    1
    41    21    26    1
    42    21    35    1
    43    22    23    1
    44    22    31    1
    45    22    69    1
    46    23    25    1
    47    23    33    1
    48    23    39    1
    49    24    27    1
    50    24    32    1
    51    24    41    1
    52    25    28    1
    53    25    29    1
    54    25    70    1
    55    26    28    1
    56    26    71    1
    57    26    72    1
    58    27    30    1
    59    27    38    2
    60    28    73    1
    61    28    74    1
    62    29    37    1
    63    29    46    1
    64    29    47    1
    65    30    34    1
    66    30    42    1
    67    30    75    1
    68    31    38    1
    69    31    76    1
    70    31    77    1
    71    32    36    1
    72    32    78    1
    73    32    79    1
    74    33    40    1
    75    33    80    1
    76    33    81    1
    77    34    36    1
    78    34    43    1
    79    34    48    1
    80    35    82    1
    81    35    83    1
    82    35    84    1
    83    36    85    1
    84    36    86    1
    85    37    40    1
    86    37    87    1
    87    38    88    1
    88    39    89    1
    89    39    90    1
    90    39    91    1
    91    40    92    1
    92    40    93    1
    93    41    94    1
    94    41    95    1
    95    41    96    1
    96    42    44    1
    97    42    97    1
    98    42    98    1
    99    43    45    1
   100    43    99    1
   101    43   100    1
   102    44    45    1
   103    44    49    1
   104    44    50    1
   105    45   101    1
   106    45   102    1
   107    46   103    1
   108    46   104    1
   109    46   105    1
   110    49   109    1
   111    49   110    1
   112    49   111    1
   113    50   106    1
   114    50   107    1
   115    50   108    1
   116    51    52    1
   117    51   112    1
   118    52    54    1
   119    52   114    1
   120    53    56    1
   121    53   115    1
   122    54    57    1
   123    54   116    1
   124    55    57    1
   125    55    61    1
   126    55   117    1
   127    56    58    1
   128    56   118    1
   129    57   119    1
   130    58    60    1
   131    58   121    1
   132    59    60    1
   133    59    62    1
   134    59   122    1
   135    60   123    1
   136    61   124    1
   137    61   125    1
   138    62   129    1
   139    62   130    1
   140    63    64    1
   141    63   134    1
   142    64    65    1
   143    64   135    1
   144    65    67    1
   145    65   136    1
   146    66    67    1
   147    66    68    1
   148    66   137    1
   149    67   138    1
   150    68   140    1
   151    68   141    1
