@<TRIPOS>MOLECULE
IMPHY001439
 49 52 0 0 0
SMALL
GASTEIGER

@<TRIPOS>ATOM
      1 O           7.2304    0.0366    0.0000 O.3     1  UNL1       -0.4824
      2 O          10.7664    0.0087    0.0000 O.3     1  UNL1       -0.4815
      3 O           7.2419   -3.0327    0.0000 O.2     1  UNL1       -0.2918
      4 O           4.6038    2.5294    0.0000 O.3     1  UNL1       -0.4914
      5 O           2.8680    1.5360    0.0000 O.3     1  UNL1       -0.4915
      6 C           6.3243   -0.4773    0.0000 C.3     1  UNL1        0.1323
      7 C          10.7744    1.0503    0.0000 C.3     1  UNL1        0.1235
      8 C           8.1243   -0.4981    0.0000 C.ar    1  UNL1        0.1425
      9 C           6.3243   -1.5189    0.0000 C.3     1  UNL1        0.0519
     10 C           8.9904    0.0019    0.0000 C.ar    1  UNL1        0.0589
     11 C           8.1243   -1.4981    0.0000 C.ar    1  UNL1        0.0600
     12 C           9.8564   -0.4981    0.0000 C.ar    1  UNL1        0.1324
     13 C           7.2304   -2.0328    0.0000 C.2     1  UNL1        0.1705
     14 C           5.4602    0.0260    0.0000 C.ar    1  UNL1       -0.0033
     15 C           9.8723    1.5712    0.0000 C.2     1  UNL1       -0.0408
     16 C           8.9743    1.0434    0.0000 C.2     1  UNL1       -0.0478
     17 C           8.9904   -1.9981    0.0000 C.ar    1  UNL1       -0.0442
     18 C           9.8564   -1.4981    0.0000 C.ar    1  UNL1       -0.0184
     19 C          11.2777    1.9144    0.0000 C.3     1  UNL1       -0.0215
     20 C          11.7744    1.0465    0.0000 C.3     1  UNL1       -0.0215
     21 C           5.4641    1.0260    0.0000 C.ar    1  UNL1       -0.0096
     22 C           4.5923   -0.4706    0.0000 C.ar    1  UNL1       -0.0514
     23 C           4.6000    1.5294    0.0000 C.ar    1  UNL1        0.1619
     24 C           3.7282    0.0327    0.0000 C.ar    1  UNL1       -0.0159
     25 C           3.7320    1.0327    0.0000 C.ar    1  UNL1        0.1615
     26 C           3.7398    3.0327    0.0000 C.3     1  UNL1        0.0790
     27 C           2.0000    1.0394    0.0000 C.3     1  UNL1        0.0790
     28 H           6.3279    0.1427    0.0000 H       1  UNL1        0.0789
     29 H           5.7135   -1.4128    0.0000 H       1  UNL1        0.0385
     30 H           6.1153   -2.1026    0.0000 H       1  UNL1        0.0385
     31 H           9.8699    2.1912    0.0000 H       1  UNL1        0.0611
     32 H           8.4338    1.3472    0.0000 H       1  UNL1        0.0624
     33 H           8.9904   -2.6181    0.0000 H       1  UNL1        0.0627
     34 H          10.3933   -1.8081    0.0000 H       1  UNL1        0.0654
     35 H          11.8135    1.6024    0.0000 H       1  UNL1        0.0271
     36 H          11.5898    2.4502    0.0000 H       1  UNL1        0.0271
     37 H          10.7420    2.2265    0.0000 H       1  UNL1        0.0271
     38 H          11.7720    0.4265    0.0000 H       1  UNL1        0.0271
     39 H          12.3944    1.0441    0.0000 H       1  UNL1        0.0271
     40 H          11.7768    1.6665    0.0000 H       1  UNL1        0.0271
     41 H           6.0022    1.3340    0.0000 H       1  UNL1        0.0659
     42 H           4.5899   -1.0906    0.0000 H       1  UNL1        0.0623
     43 H           3.1901   -0.2752    0.0000 H       1  UNL1        0.0655
     44 H           4.0518    3.5684    0.0000 H       1  UNL1        0.0660
     45 H           3.2040    3.3448    0.0000 H       1  UNL1        0.0660
     46 H           3.4277    2.4970    0.0000 H       1  UNL1        0.0660
     47 H           1.6921    1.5775    0.0000 H       1  UNL1        0.0660
     48 H           1.4619    0.7315    0.0000 H       1  UNL1        0.0660
     49 H           2.3079    0.5013    0.0000 H       1  UNL1        0.0660
@<TRIPOS>BOND
     1     1     6    1
     2     1     8    1
     3     2     7    1
     4     2    12    1
     5     3    13    2
     6     4    23    1
     7     4    26    1
     8     5    25    1
     9     5    27    1
    10     6     9    1
    11     6    14    1
    12     6    28    1
    13     7    15    1
    14     7    19    1
    15     7    20    1
    16     8    10   ar
    17     8    11   ar
    18     9    13    1
    19     9    29    1
    20     9    30    1
    21    10    12   ar
    22    10    16    1
    23    11    13    1
    24    11    17   ar
    25    12    18   ar
    26    14    21   ar
    27    14    22   ar
    28    15    16    2
    29    15    31    1
    30    16    32    1
    31    17    18   ar
    32    17    33    1
    33    18    34    1
    34    19    35    1
    35    19    36    1
    36    19    37    1
    37    20    38    1
    38    20    39    1
    39    20    40    1
    40    21    23   ar
    41    21    41    1
    42    22    24   ar
    43    22    42    1
    44    23    25   ar
    45    24    25   ar
    46    24    43    1
    47    26    44    1
    48    26    45    1
    49    26    46    1
    50    27    47    1
    51    27    48    1
    52    27    49    1
