@<TRIPOS>MOLECULE
IMPHY008883
 20 20 0 0 0
SMALL
GASTEIGER

@<TRIPOS>ATOM
      1 N           3.7320    1.2500    0.0000 N.3     1  UNL1       -0.3150
      2 C           2.8660    0.7500    0.0000 C.3     1  UNL1        0.0210
      3 C           2.8660   -0.2500    0.0000 C.ar    1  UNL1       -0.0336
      4 C           2.0000   -0.7500    0.0000 C.ar    1  UNL1       -0.0573
      5 C           3.7320   -0.7500    0.0000 C.ar    1  UNL1       -0.0573
      6 C           2.0000   -1.7500    0.0000 C.ar    1  UNL1       -0.0615
      7 C           3.7320   -1.7500    0.0000 C.ar    1  UNL1       -0.0615
      8 C           2.8660   -2.2500    0.0000 C.ar    1  UNL1       -0.0617
      9 C           3.7320    2.2500    0.0000 C.3     1  UNL1       -0.0155
     10 H           2.6540    1.3326    0.0000 H       1  UNL1        0.0473
     11 H           2.2554    0.6423    0.0000 H       1  UNL1        0.0473
     12 H           1.4631   -0.4400    0.0000 H       1  UNL1        0.0621
     13 H           4.2690   -0.4400    0.0000 H       1  UNL1        0.0621
     14 H           4.2690    0.9400    0.0000 H       1  UNL1        0.1219
     15 H           1.4631   -2.0600    0.0000 H       1  UNL1        0.0618
     16 H           4.2690   -2.0600    0.0000 H       1  UNL1        0.0618
     17 H           2.8660   -2.8700    0.0000 H       1  UNL1        0.0618
     18 H           4.3520    2.2500    0.0000 H       1  UNL1        0.0388
     19 H           3.7320    2.8700    0.0000 H       1  UNL1        0.0388
     20 H           3.1120    2.2500    0.0000 H       1  UNL1        0.0388
@<TRIPOS>BOND
     1     1     2    1
     2     1     9    1
     3     1    14    1
     4     2     3    1
     5     2    10    1
     6     2    11    1
     7     3     4   ar
     8     3     5   ar
     9     4     6   ar
    10     4    12    1
    11     5     7   ar
    12     5    13    1
    13     6     8   ar
    14     6    15    1
    15     7     8   ar
    16     7    16    1
    17     8    17    1
    18     9    18    1
    19     9    19    1
    20     9    20    1
