@<TRIPOS>MOLECULE
IMPHY010067
 45 44 0 0 0
SMALL
GASTEIGER

@<TRIPOS>ATOM
      1 O          13.2583   -1.7500    0.0000 O.2     1  UNL1       -0.2708
      2 N          14.1244   -0.2500    0.0000 N.am    1  UNL1       -0.3116
      3 C          15.8564   -0.2500    0.0000 C.3     1  UNL1       -0.0311
      4 C          14.9904   -0.7500    0.0000 C.3     1  UNL1        0.0142
      5 C          16.7224   -0.7500    0.0000 C.3     1  UNL1       -0.0612
      6 C          15.8564    0.7500    0.0000 C.3     1  UNL1       -0.0612
      7 C          13.2583   -0.7500    0.0000 C.2     1  UNL1        0.2369
      8 C          12.3923   -0.2500    0.0000 C.2     1  UNL1        0.0001
      9 C           8.9282   -0.2500    0.0000 C.3     1  UNL1       -0.0236
     10 C          11.5263   -0.7500    0.0000 C.2     1  UNL1       -0.0571
     11 C           2.8660    1.2500    0.0000 C.3     1  UNL1       -0.0450
     12 C           9.7942   -0.7500    0.0000 C.2     1  UNL1       -0.0831
     13 C           8.0622   -0.7500    0.0000 C.3     1  UNL1        0.0135
     14 C          10.6603   -0.2500    0.0000 C.2     1  UNL1       -0.0655
     15 C           3.7320    1.7500    0.0000 C.3     1  UNL1        0.0098
     16 C           2.0000    1.7500    0.0000 C.3     1  UNL1       -0.0644
     17 C           7.1962   -0.2500    0.0000 C.1     1  UNL1       -0.0881
     18 C           4.5981    1.2500    0.0000 C.1     1  UNL1       -0.0884
     19 C           6.3301    0.2500    0.0000 C.1     1  UNL1       -0.0148
     20 C           5.4641    0.7500    0.0000 C.1     1  UNL1       -0.0148
     21 H          16.3933    0.0600    0.0000 H       1  UNL1        0.0311
     22 H          14.5919   -1.2250    0.0000 H       1  UNL1        0.0465
     23 H          15.3889   -1.2250    0.0000 H       1  UNL1        0.0465
     24 H          16.4124   -1.2869    0.0000 H       1  UNL1        0.0233
     25 H          17.2594   -1.0600    0.0000 H       1  UNL1        0.0233
     26 H          17.0324   -0.2131    0.0000 H       1  UNL1        0.0233
     27 H          16.4764    0.7500    0.0000 H       1  UNL1        0.0233
     28 H          15.8564    1.3700    0.0000 H       1  UNL1        0.0233
     29 H          15.2364    0.7500    0.0000 H       1  UNL1        0.0233
     30 H          14.1244    0.3700    0.0000 H       1  UNL1        0.1490
     31 H          12.3923    0.3700    0.0000 H       1  UNL1        0.0669
     32 H           9.3267    0.2249    0.0000 H       1  UNL1        0.0316
     33 H           8.5297    0.2249    0.0000 H       1  UNL1        0.0316
     34 H          11.5263   -1.3700    0.0000 H       1  UNL1        0.0619
     35 H           2.4675    0.7751    0.0000 H       1  UNL1        0.0272
     36 H           3.2646    0.7751    0.0000 H       1  UNL1        0.0272
     37 H           9.7942   -1.3700    0.0000 H       1  UNL1        0.0572
     38 H           7.6636   -1.2250    0.0000 H       1  UNL1        0.0401
     39 H           8.4607   -1.2250    0.0000 H       1  UNL1        0.0401
     40 H          10.6603    0.3700    0.0000 H       1  UNL1        0.0615
     41 H           4.1306    2.2250    0.0000 H       1  UNL1        0.0398
     42 H           3.3335    2.2250    0.0000 H       1  UNL1        0.0398
     43 H           2.3100    2.2869    0.0000 H       1  UNL1        0.0230
     44 H           1.4631    2.0600    0.0000 H       1  UNL1        0.0230
     45 H           1.6900    1.2131    0.0000 H       1  UNL1        0.0230
@<TRIPOS>BOND
     1     1     7    2
     2     2     4    1
     3     2     7   am
     4     2    30    1
     5     3     4    1
     6     3     5    1
     7     3     6    1
     8     3    21    1
     9     4    22    1
    10     4    23    1
    11     5    24    1
    12     5    25    1
    13     5    26    1
    14     6    27    1
    15     6    28    1
    16     6    29    1
    17     7     8    1
    18     8    10    2
    19     8    31    1
    20     9    12    1
    21     9    13    1
    22     9    32    1
    23     9    33    1
    24    10    14    1
    25    10    34    1
    26    11    15    1
    27    11    16    1
    28    11    35    1
    29    11    36    1
    30    12    14    2
    31    12    37    1
    32    13    17    1
    33    13    38    1
    34    13    39    1
    35    14    40    1
    36    15    18    1
    37    15    41    1
    38    15    42    1
    39    16    43    1
    40    16    44    1
    41    16    45    1
    42    17    19    3
    43    18    20    3
    44    19    20    1
