@<TRIPOS>MOLECULE
IMPHY012154
 62 63 0 0 0
SMALL
GASTEIGER

@<TRIPOS>ATOM
      1 O           6.3301   -1.2784    0.0000 O.3     1  UNL1       -0.4943
      2 O           2.8660   -1.2784    0.0000 O.3     1  UNL1       -0.5055
      3 O           3.3125    1.2536    0.0000 O.3     1  UNL1       -0.5055
      4 O           6.5677    0.0688    0.0000 O.3     1  UNL1       -0.5060
      5 O           4.5981   -4.2784    0.0000 O.3     1  UNL1       -0.5056
      6 O           5.9662    3.4803    0.0000 O.3     1  UNL1       -0.5056
      7 O           2.0000   -2.7784    0.0000 O.2     1  UNL1       -0.2918
      8 O           3.0117    2.9594    0.0000 O.2     1  UNL1       -0.2918
      9 C           4.5981   -0.2785    0.0000 C.3     1  UNL1        0.0115
     10 C           4.5981   -1.2784    0.0000 C.ar    1  UNL1        0.0413
     11 C           4.9401    0.6612    0.0000 C.ar    1  UNL1        0.0411
     12 C           5.4641   -1.7784    0.0000 C.ar    1  UNL1        0.1334
     13 C           3.7320   -1.7784    0.0000 C.ar    1  UNL1        0.1378
     14 C           3.7320   -2.7784    0.0000 C.ar    1  UNL1        0.1008
     15 C           4.2973    1.4273    0.0000 C.ar    1  UNL1        0.1378
     16 C           5.9249    0.8349    0.0000 C.ar    1  UNL1        0.1302
     17 C           5.4641   -2.7784    0.0000 C.ar    1  UNL1        0.0337
     18 C           4.6393    2.3670    0.0000 C.ar    1  UNL1        0.1008
     19 C           6.2669    1.7746    0.0000 C.ar    1  UNL1        0.0335
     20 C           4.5981   -3.2784    0.0000 C.ar    1  UNL1        0.1372
     21 C           5.6241    2.5406    0.0000 C.ar    1  UNL1        0.1372
     22 C           2.8660   -3.2784    0.0000 C.2     1  UNL1        0.1702
     23 C           3.9965    3.1330    0.0000 C.2     1  UNL1        0.1702
     24 C           2.8660   -4.2784    0.0000 C.3     1  UNL1        0.0105
     25 C           4.3386    4.0727    0.0000 C.3     1  UNL1        0.0105
     26 C           6.3301   -3.2784    0.0000 C.3     1  UNL1       -0.0327
     27 C           7.2517    1.9482    0.0000 C.3     1  UNL1       -0.0327
     28 C           2.0000   -4.7784    0.0000 C.3     1  UNL1       -0.0489
     29 C           3.6958    4.8388    0.0000 C.3     1  UNL1       -0.0489
     30 C           2.0000   -5.7784    0.0000 C.3     1  UNL1       -0.0649
     31 C           4.0378    5.7784    0.0000 C.3     1  UNL1       -0.0649
     32 C           7.1962   -1.7784    0.0000 C.3     1  UNL1        0.0788
     33 H           4.1471    0.1470    0.0000 H       1  UNL1        0.0366
     34 H           5.2087   -0.3861    0.0000 H       1  UNL1        0.0366
     35 H           3.0781   -4.8611    0.0000 H       1  UNL1        0.0345
     36 H           3.4766   -4.1708    0.0000 H       1  UNL1        0.0345
     37 H           4.8755    3.7627    0.0000 H       1  UNL1        0.0345
     38 H           4.7371    4.5477    0.0000 H       1  UNL1        0.0345
     39 H           6.0201   -3.8154    0.0000 H       1  UNL1        0.0280
     40 H           6.8671   -3.5884    0.0000 H       1  UNL1        0.0280
     41 H           6.6401   -2.7415    0.0000 H       1  UNL1        0.0280
     42 H           7.3594    1.3376    0.0000 H       1  UNL1        0.0280
     43 H           7.8623    2.0559    0.0000 H       1  UNL1        0.0280
     44 H           7.1441    2.5588    0.0000 H       1  UNL1        0.0280
     45 H           1.7880   -4.1958    0.0000 H       1  UNL1        0.0267
     46 H           1.3894   -4.8861    0.0000 H       1  UNL1        0.0267
     47 H           3.1588    5.1488    0.0000 H       1  UNL1        0.0267
     48 H           3.2972    4.3638    0.0000 H       1  UNL1        0.0267
     49 H           2.8660   -0.6585    0.0000 H       1  UNL1        0.2922
     50 H           2.9140    1.7286    0.0000 H       1  UNL1        0.2922
     51 H           7.1783    0.1765    0.0000 H       1  UNL1        0.2922
     52 H           5.1350   -4.5884    0.0000 H       1  UNL1        0.2922
     53 H           1.3800   -5.7784    0.0000 H       1  UNL1        0.0230
     54 H           2.0000   -6.3985    0.0000 H       1  UNL1        0.0230
     55 H           2.6200   -5.7784    0.0000 H       1  UNL1        0.0230
     56 H           6.5767    3.5880    0.0000 H       1  UNL1        0.2922
     57 H           4.6204    5.5664    0.0000 H       1  UNL1        0.0230
     58 H           4.2498    6.3611    0.0000 H       1  UNL1        0.0230
     59 H           3.4552    5.9905    0.0000 H       1  UNL1        0.0230
     60 H           6.8862   -2.3154    0.0000 H       1  UNL1        0.0660
     61 H           7.7331   -2.0884    0.0000 H       1  UNL1        0.0660
     62 H           7.5062   -1.2415    0.0000 H       1  UNL1        0.0660
@<TRIPOS>BOND
     1     1    12    1
     2     1    32    1
     3     2    13    1
     4     2    49    1
     5     3    15    1
     6     3    50    1
     7     4    16    1
     8     4    51    1
     9     5    20    1
    10     5    52    1
    11     6    21    1
    12     6    56    1
    13     7    22    2
    14     8    23    2
    15     9    10    1
    16     9    11    1
    17     9    33    1
    18     9    34    1
    19    10    12   ar
    20    10    13   ar
    21    11    15   ar
    22    11    16   ar
    23    12    17   ar
    24    13    14   ar
    25    14    20   ar
    26    14    22    1
    27    15    18   ar
    28    16    19   ar
    29    17    20   ar
    30    17    26    1
    31    18    21   ar
    32    18    23    1
    33    19    21   ar
    34    19    27    1
    35    22    24    1
    36    23    25    1
    37    24    28    1
    38    24    35    1
    39    24    36    1
    40    25    29    1
    41    25    37    1
    42    25    38    1
    43    26    39    1
    44    26    40    1
    45    26    41    1
    46    27    42    1
    47    27    43    1
    48    27    44    1
    49    28    30    1
    50    28    45    1
    51    28    46    1
    52    29    31    1
    53    29    47    1
    54    29    48    1
    55    30    53    1
    56    30    54    1
    57    30    55    1
    58    31    57    1
    59    31    58    1
    60    31    59    1
    61    32    60    1
    62    32    61    1
    63    32    62    1
