@<TRIPOS>MOLECULE
IMPHY001420
 48 52 0 0 0
SMALL
GASTEIGER

@<TRIPOS>ATOM
      1 O           9.3042   -2.0697    0.0000 O.3     1  UNL1       -0.3910
      2 O           7.5596   -2.5737    0.0000 O.3     1  UNL1       -0.4677
      3 O           6.2860   -1.3999    0.0000 O.2     1  UNL1       -0.2504
      4 N           6.9654    2.1163    0.0000 N.ar    1  UNL1       -0.3484
      5 N           4.5124    0.9988    0.0000 N.ar    1  UNL1       -0.2449
      6 C           7.6200    0.1532    0.0000 C.3     1  UNL1       -0.0159
      7 C           8.3170    0.9273    0.0000 C.3     1  UNL1       -0.0189
      8 C           7.9393   -0.8837    0.0000 C.3     1  UNL1        0.0857
      9 C           9.3816    0.7181    0.0000 C.3     1  UNL1       -0.0460
     10 C           6.6028    0.3776    0.0000 C.3     1  UNL1       -0.0063
     11 C           8.9988   -1.1175    0.0000 C.3     1  UNL1        0.0684
     12 C           7.9875    1.9154    0.0000 C.3     1  UNL1        0.0262
     13 C           9.7248   -0.3112    0.0000 C.3     1  UNL1       -0.0257
     14 C           6.2962    1.3731    0.0000 C.ar    1  UNL1        0.0451
     15 C           7.2616   -1.6191    0.0000 C.2     1  UNL1        0.3127
     16 C           5.3181    1.5810    0.0000 C.ar    1  UNL1        0.0916
     17 C           6.6564    3.0673    0.0000 C.ar    1  UNL1        0.0055
     18 C           5.0091    2.5321    0.0000 C.ar    1  UNL1        0.0126
     19 C           5.6782    3.2752    0.0000 C.ar    1  UNL1       -0.0357
     20 C           4.0150    2.5295    0.0000 C.ar    1  UNL1        0.0096
     21 C           3.7086    1.5838    0.0000 C.ar    1  UNL1        0.0724
     22 C           3.3334    3.3090    0.0000 C.ar    1  UNL1       -0.0519
     23 C           6.8820   -3.3090    0.0000 C.3     1  UNL1        0.0817
     24 C           2.6994    1.3521    0.0000 C.ar    1  UNL1       -0.0357
     25 C           2.3191    3.1007    0.0000 C.ar    1  UNL1       -0.0611
     26 C           2.0000    2.1156    0.0000 C.ar    1  UNL1       -0.0597
     27 H           7.0440   -0.4718    0.0000 H       1  UNL1        0.0316
     28 H           8.8784    1.5655    0.0000 H       1  UNL1        0.0321
     29 H           7.3346   -0.7467    0.0000 H       1  UNL1        0.0442
     30 H           9.9946    0.8107    0.0000 H       1  UNL1        0.0269
     31 H           9.3953    1.3380    0.0000 H       1  UNL1        0.0269
     32 H           5.9878    0.2992    0.0000 H       1  UNL1        0.0331
     33 H           6.5748   -0.2417    0.0000 H       1  UNL1        0.0331
     34 H           9.6050   -1.2476    0.0000 H       1  UNL1        0.0601
     35 H           8.6005    2.0080    0.0000 H       1  UNL1        0.0494
     36 H           8.0011    2.5353    0.0000 H       1  UNL1        0.0494
     37 H          10.1078   -0.7988    0.0000 H       1  UNL1        0.0290
     38 H          10.2708   -0.0173    0.0000 H       1  UNL1        0.0290
     39 H           7.0712    3.5281    0.0000 H       1  UNL1        0.0809
     40 H           9.9101   -2.2010    0.0000 H       1  UNL1        0.2098
     41 H           5.4866    3.8649    0.0000 H       1  UNL1        0.0639
     42 H           3.5313    3.8966    0.0000 H       1  UNL1        0.0624
     43 H           6.4260   -2.8888    0.0000 H       1  UNL1        0.0661
     44 H           6.4618   -3.7649    0.0000 H       1  UNL1        0.0661
     45 H           7.3379   -3.7292    0.0000 H       1  UNL1        0.0661
     46 H           2.5152    0.7601    0.0000 H       1  UNL1        0.0639
     47 H           1.9056    3.5626    0.0000 H       1  UNL1        0.0618
     48 H           1.3942    1.9838    0.0000 H       1  UNL1        0.0618
@<TRIPOS>BOND
     1    11     1    1
     2     1    40    1
     3     2    15    1
     4     2    23    1
     5     3    15    2
     6     4    12    1
     7     4    14   ar
     8     4    17   ar
     9     5    16   ar
    10     5    21   ar
    11     6     7    1
    12     6     8    1
    13     6    10    1
    14     6    27    1
    15     7     9    1
    16     7    12    1
    17     7    28    1
    18     8    11    1
    19     8    15    1
    20     8    29    1
    21     9    13    1
    22     9    30    1
    23     9    31    1
    24    10    14    1
    25    10    32    1
    26    10    33    1
    27    11    13    1
    28    11    34    1
    29    12    35    1
    30    12    36    1
    31    13    37    1
    32    13    38    1
    33    14    16   ar
    34    16    18    1
    35    17    19   ar
    36    17    39    1
    37    18    19   ar
    38    18    20   ar
    39    19    41    1
    40    20    21   ar
    41    20    22   ar
    42    21    24   ar
    43    22    25   ar
    44    22    42    1
    45    23    43    1
    46    23    44    1
    47    23    45    1
    48    24    26   ar
    49    24    46    1
    50    25    26   ar
    51    25    47    1
    52    26    48    1
