@<TRIPOS>MOLECULE
IMPHY009892
 37 38 0 0 0
SMALL
GASTEIGER

@<TRIPOS>ATOM
      1 C           2.8660   -0.7500    0.0000 C.3     1  UNL1       -0.0250
      2 C           3.7320   -0.2500    0.0000 C.3     1  UNL1        0.0057
      3 C           2.8660   -1.7500    0.0000 C.3     1  UNL1       -0.0428
      4 C           2.0000   -0.2500    0.0000 C.3     1  UNL1       -0.0303
      5 C           3.7320    0.7500    0.0000 C.2     1  UNL1       -0.0413
      6 C           4.6260   -0.7847    0.0000 C.2     1  UNL1       -0.0770
      7 C           2.8660    1.2500    0.0000 C.2     1  UNL1       -0.0509
      8 C           2.0000    0.7500    0.0000 C.2     1  UNL1       -0.0805
      9 C           4.6260    1.2847    0.0000 C.2     1  UNL1       -0.0760
     10 C           5.5321   -0.2708    0.0000 C.2     1  UNL1       -0.0722
     11 C           2.0000   -2.2500    0.0000 C.3     1  UNL1       -0.0624
     12 C           3.7320   -2.2500    0.0000 C.3     1  UNL1       -0.0624
     13 C           5.5321    0.7708    0.0000 C.3     1  UNL1       -0.0132
     14 C           2.8660    2.2500    0.0000 C.3     1  UNL1       -0.0397
     15 C           6.3961   -0.7742    0.0000 C.3     1  UNL1       -0.0435
     16 H           2.3291   -1.0600    0.0000 H       1  UNL1        0.0315
     17 H           3.7273   -0.8700    0.0000 H       1  UNL1        0.0394
     18 H           2.8660   -2.3700    0.0000 H       1  UNL1        0.0299
     19 H           1.3894   -0.1423    0.0000 H       1  UNL1        0.0311
     20 H           1.7880   -0.8326    0.0000 H       1  UNL1        0.0311
     21 H           4.6188   -1.4046    0.0000 H       1  UNL1        0.0578
     22 H           1.4631    1.0600    0.0000 H       1  UNL1        0.0575
     23 H           4.6188    1.9046    0.0000 H       1  UNL1        0.0578
     24 H           3.4220   -2.7869    0.0000 H       1  UNL1        0.0232
     25 H           4.2690   -2.5600    0.0000 H       1  UNL1        0.0232
     26 H           4.0420   -1.7131    0.0000 H       1  UNL1        0.0232
     27 H           1.6900   -1.7131    0.0000 H       1  UNL1        0.0232
     28 H           1.4631   -2.5600    0.0000 H       1  UNL1        0.0232
     29 H           2.3100   -2.7869    0.0000 H       1  UNL1        0.0232
     30 H           6.1429    0.6647    0.0000 H       1  UNL1        0.0352
     31 H           5.7411    1.3545    0.0000 H       1  UNL1        0.0352
     32 H           3.4860    2.2500    0.0000 H       1  UNL1        0.0278
     33 H           2.8660    2.8700    0.0000 H       1  UNL1        0.0278
     34 H           2.2460    2.2500    0.0000 H       1  UNL1        0.0278
     35 H           6.0841   -1.3099    0.0000 H       1  UNL1        0.0274
     36 H           6.9319   -1.0862    0.0000 H       1  UNL1        0.0274
     37 H           6.7082   -0.2384    0.0000 H       1  UNL1        0.0274
@<TRIPOS>BOND
     1     1     2    1
     2     1     3    1
     3     1     4    1
     4     1    16    1
     5     2     5    1
     6     2     6    1
     7     2    17    1
     8     3    11    1
     9     3    12    1
    10     3    18    1
    11     4     8    1
    12     4    19    1
    13     4    20    1
    14     5     7    1
    15     5     9    2
    16     6    10    2
    17     6    21    1
    18     7     8    2
    19     7    14    1
    20     8    22    1
    21     9    13    1
    22     9    23    1
    23    10    13    1
    24    10    15    1
    25    11    27    1
    26    11    28    1
    27    11    29    1
    28    12    24    1
    29    12    25    1
    30    12    26    1
    31    13    30    1
    32    13    31    1
    33    14    32    1
    34    14    33    1
    35    14    34    1
    36    15    35    1
    37    15    36    1
    38    15    37    1
