@<TRIPOS>MOLECULE
IMPHY001366
 48 49 0 0 0
SMALL
GASTEIGER

@<TRIPOS>ATOM
      1 O           7.7496    1.0248    0.0000 O.2     1  UNL1       -0.2973
      2 O           3.1590    1.0248    0.0000 O.2     1  UNL1       -0.2976
      3 N           5.4543   -0.9013    0.0000 N.3     1  UNL1       -0.2987
      4 N           9.5472    1.4013    0.0000 N.3     1  UNL1       -0.3020
      5 C           6.2633   -0.3135    0.0000 C.3     1  UNL1        0.0171
      6 C           4.6453   -0.3135    0.0000 C.3     1  UNL1        0.0171
      7 C           5.9543    0.6376    0.0000 C.3     1  UNL1       -0.0355
      8 C           4.9543    0.6376    0.0000 C.3     1  UNL1       -0.0355
      9 C           7.2144   -0.6225    0.0000 C.3     1  UNL1        0.0215
     10 C           9.6517    0.4067    0.0000 C.3     1  UNL1        0.0168
     11 C          10.6298    0.1988    0.0000 C.3     1  UNL1       -0.0358
     12 C           8.9086   -0.2624    0.0000 C.3     1  UNL1        0.0215
     13 C           3.6942   -0.6225    0.0000 C.3     1  UNL1        0.0212
     14 C           7.9575    0.0466    0.0000 C.2     1  UNL1        0.1363
     15 C          11.1298    1.0649    0.0000 C.3     1  UNL1       -0.0388
     16 C          10.4607    1.8080    0.0000 C.3     1  UNL1       -0.0011
     17 C           5.4543   -1.9013    0.0000 C.3     1  UNL1       -0.0122
     18 C           8.6811    1.9013    0.0000 C.3     1  UNL1       -0.0125
     19 C           2.9511    0.0466    0.0000 C.2     1  UNL1        0.1318
     20 C           2.0000   -0.2624    0.0000 C.3     1  UNL1       -0.0060
     21 H           6.3603   -0.9258    0.0000 H       1  UNL1        0.0467
     22 H           4.5483   -0.9258    0.0000 H       1  UNL1        0.0467
     23 H           6.5607    0.7665    0.0000 H       1  UNL1        0.0281
     24 H           5.8895    1.2542    0.0000 H       1  UNL1        0.0281
     25 H           5.0191    1.2542    0.0000 H       1  UNL1        0.0281
     26 H           4.3478    0.7665    0.0000 H       1  UNL1        0.0281
     27 H           6.9233   -1.1699    0.0000 H       1  UNL1        0.0357
     28 H           7.7029   -1.0042    0.0000 H       1  UNL1        0.0357
     29 H           9.0729    0.6289    0.0000 H       1  UNL1        0.0466
     30 H          10.4383   -0.3908    0.0000 H       1  UNL1        0.0281
     31 H          11.1962   -0.0533    0.0000 H       1  UNL1        0.0281
     32 H           8.6175   -0.8098    0.0000 H       1  UNL1        0.0357
     33 H           9.3971   -0.6441    0.0000 H       1  UNL1        0.0357
     34 H           3.2056   -1.0042    0.0000 H       1  UNL1        0.0357
     35 H           3.9853   -1.1699    0.0000 H       1  UNL1        0.0357
     36 H          11.6314    0.7004    0.0000 H       1  UNL1        0.0278
     37 H          11.5447    1.5256    0.0000 H       1  UNL1        0.0278
     38 H          10.9623    2.1724    0.0000 H       1  UNL1        0.0426
     39 H          10.1507    2.3449    0.0000 H       1  UNL1        0.0426
     40 H           4.8343   -1.9013    0.0000 H       1  UNL1        0.0391
     41 H           5.4543   -2.5213    0.0000 H       1  UNL1        0.0391
     42 H           6.0743   -1.9013    0.0000 H       1  UNL1        0.0391
     43 H           8.9911    2.4382    0.0000 H       1  UNL1        0.0391
     44 H           8.1442    2.2113    0.0000 H       1  UNL1        0.0391
     45 H           8.3711    1.3643    0.0000 H       1  UNL1        0.0391
     46 H           1.8084    0.3273    0.0000 H       1  UNL1        0.0306
     47 H           1.4103   -0.4540    0.0000 H       1  UNL1        0.0306
     48 H           2.1916   -0.8520    0.0000 H       1  UNL1        0.0306
@<TRIPOS>BOND
     1     1    14    2
     2     2    19    2
     3     3     5    1
     4     3     6    1
     5     3    17    1
     6     4    10    1
     7     4    16    1
     8     4    18    1
     9     5     7    1
    10     5     9    1
    11     5    21    1
    12     6     8    1
    13     6    13    1
    14     6    22    1
    15     7     8    1
    16     7    23    1
    17     7    24    1
    18     8    25    1
    19     8    26    1
    20     9    14    1
    21     9    27    1
    22     9    28    1
    23    10    11    1
    24    10    12    1
    25    10    29    1
    26    11    15    1
    27    11    30    1
    28    11    31    1
    29    12    14    1
    30    12    32    1
    31    12    33    1
    32    13    19    1
    33    13    34    1
    34    13    35    1
    35    15    16    1
    36    15    36    1
    37    15    37    1
    38    16    38    1
    39    16    39    1
    40    17    40    1
    41    17    41    1
    42    17    42    1
    43    18    43    1
    44    18    44    1
    45    18    45    1
    46    19    20    1
    47    20    46    1
    48    20    47    1
    49    20    48    1
