@<TRIPOS>MOLECULE
IMPHY015487
 25 25 0 0 0
SMALL
GASTEIGER

@<TRIPOS>ATOM
      1 O           3.7320    1.7500    0.0000 O.3     1  UNL1       -0.4601
      2 O           2.8660   -2.7500    0.0000 O.3     1  UNL1       -0.4951
      3 O           2.8660    3.2500    0.0000 O.2     1  UNL1       -0.2512
      4 C           2.8660    0.2500    0.0000 C.ar    1  UNL1       -0.0101
      5 C           2.8660    1.2500    0.0000 C.3     1  UNL1        0.1175
      6 C           3.7320   -0.2500    0.0000 C.ar    1  UNL1       -0.0519
      7 C           2.0000   -0.2500    0.0000 C.ar    1  UNL1       -0.0519
      8 C           2.8660   -1.7500    0.0000 C.ar    1  UNL1        0.1201
      9 C           3.7320   -1.2500    0.0000 C.ar    1  UNL1       -0.0196
     10 C           2.0000   -1.2500    0.0000 C.ar    1  UNL1       -0.0196
     11 C           3.7320    2.7500    0.0000 C.2     1  UNL1        0.3043
     12 C           2.0000   -3.2500    0.0000 C.3     1  UNL1        0.0788
     13 C           4.5981    3.2500    0.0000 C.3     1  UNL1        0.0332
     14 H           2.6540    1.8326    0.0000 H       1  UNL1        0.0749
     15 H           2.2554    1.1423    0.0000 H       1  UNL1        0.0749
     16 H           4.2690    0.0600    0.0000 H       1  UNL1        0.0622
     17 H           1.4631    0.0600    0.0000 H       1  UNL1        0.0622
     18 H           4.2690   -1.5600    0.0000 H       1  UNL1        0.0654
     19 H           1.4631   -1.5600    0.0000 H       1  UNL1        0.0654
     20 H           4.9081    2.7131    0.0000 H       1  UNL1        0.0342
     21 H           5.1350    3.5600    0.0000 H       1  UNL1        0.0342
     22 H           4.2881    3.7869    0.0000 H       1  UNL1        0.0342
     23 H           1.6900   -2.7131    0.0000 H       1  UNL1        0.0660
     24 H           1.4631   -3.5600    0.0000 H       1  UNL1        0.0660
     25 H           2.3100   -3.7869    0.0000 H       1  UNL1        0.0660
@<TRIPOS>BOND
     1     1     5    1
     2     1    11    1
     3     2     8    1
     4     2    12    1
     5     3    11    2
     6     4     5    1
     7     4     6   ar
     8     4     7   ar
     9     5    14    1
    10     5    15    1
    11     6     9   ar
    12     6    16    1
    13     7    10   ar
    14     7    17    1
    15     8     9   ar
    16     8    10   ar
    17     9    18    1
    18    10    19    1
    19    11    13    1
    20    12    23    1
    21    12    24    1
    22    12    25    1
    23    13    20    1
    24    13    21    1
    25    13    22    1
