@<TRIPOS>MOLECULE
IMPHY012080
 23 24 0 0 0
SMALL
GASTEIGER

@<TRIPOS>ATOM
      1 O           2.8660    0.5000    0.0000 O.3     1  UNL1       -0.4560
      2 C           2.8660   -0.5000    0.0000 C.ar    1  UNL1        0.1284
      3 C           3.7320    1.0000    0.0000 C.ar    1  UNL1        0.1284
      4 C           2.0000   -1.0000    0.0000 C.ar    1  UNL1       -0.0193
      5 C           4.5981    0.5000    0.0000 C.ar    1  UNL1       -0.0193
      6 C           3.7320   -1.0000    0.0000 C.ar    1  UNL1       -0.0193
      7 C           3.7320    2.0000    0.0000 C.ar    1  UNL1       -0.0193
      8 C           2.0000   -2.0000    0.0000 C.ar    1  UNL1       -0.0583
      9 C           5.4641    1.0000    0.0000 C.ar    1  UNL1       -0.0583
     10 C           3.7320   -2.0000    0.0000 C.ar    1  UNL1       -0.0583
     11 C           4.5981    2.5000    0.0000 C.ar    1  UNL1       -0.0583
     12 C           2.8660   -2.5000    0.0000 C.ar    1  UNL1       -0.0615
     13 C           5.4641    2.0000    0.0000 C.ar    1  UNL1       -0.0615
     14 H           1.4631   -0.6900    0.0000 H       1  UNL1        0.0654
     15 H           4.5981   -0.1200    0.0000 H       1  UNL1        0.0654
     16 H           4.2690   -0.6900    0.0000 H       1  UNL1        0.0654
     17 H           3.1951    2.3100    0.0000 H       1  UNL1        0.0654
     18 H           1.4631   -2.3100    0.0000 H       1  UNL1        0.0619
     19 H           6.0010    0.6900    0.0000 H       1  UNL1        0.0619
     20 H           4.2690   -2.3100    0.0000 H       1  UNL1        0.0619
     21 H           4.5981    3.1200    0.0000 H       1  UNL1        0.0619
     22 H           2.8660   -3.1200    0.0000 H       1  UNL1        0.0618
     23 H           6.0010    2.3100    0.0000 H       1  UNL1        0.0618
@<TRIPOS>BOND
     1     1     2    1
     2     1     3    1
     3     2     4   ar
     4     2     6   ar
     5     3     5   ar
     6     3     7   ar
     7     4     8   ar
     8     4    14    1
     9     5     9   ar
    10     5    15    1
    11     6    10   ar
    12     6    16    1
    13     7    11   ar
    14     7    17    1
    15     8    12   ar
    16     8    18    1
    17     9    13   ar
    18     9    19    1
    19    10    12   ar
    20    10    20    1
    21    11    13   ar
    22    11    21    1
    23    12    22    1
    24    13    23    1
