@<TRIPOS>MOLECULE
IMPHY015964
 15 15 0 0 0
SMALL
GASTEIGER

@<TRIPOS>ATOM
      1 S           3.7601    0.7694    0.0000 S.3     1  UNL1       -0.1313
      2 S           4.2601   -0.7694    0.0000 S.3     1  UNL1       -0.0781
      3 S           3.2601   -0.7694    0.0000 S.3     1  UNL1       -0.0781
      4 C           4.5691    0.1816    0.0000 C.3     1  UNL1        0.0594
      5 C           2.9511    0.1816    0.0000 C.3     1  UNL1        0.0594
      6 C           5.5202    0.4907    0.0000 C.3     1  UNL1       -0.0432
      7 C           2.0000    0.4907    0.0000 C.3     1  UNL1       -0.0432
      8 H           4.6661    0.7940    0.0000 H       1  UNL1        0.0531
      9 H           2.5126   -0.2568    0.0000 H       1  UNL1        0.0531
     10 H           5.7117   -0.0990    0.0000 H       1  UNL1        0.0249
     11 H           6.1098    0.6822    0.0000 H       1  UNL1        0.0249
     12 H           5.3286    1.0803    0.0000 H       1  UNL1        0.0249
     13 H           2.1916    1.0803    0.0000 H       1  UNL1        0.0249
     14 H           1.4103    0.6822    0.0000 H       1  UNL1        0.0249
     15 H           1.8084   -0.0990    0.0000 H       1  UNL1        0.0249
@<TRIPOS>BOND
     1     1     4    1
     2     1     5    1
     3     2     3    1
     4     2     4    1
     5     3     5    1
     6     4     6    1
     7     4     8    1
     8     5     7    1
     9     5     9    1
    10     6    10    1
    11     6    11    1
    12     6    12    1
    13     7    13    1
    14     7    14    1
    15     7    15    1
