@<TRIPOS>MOLECULE
IMPHY011201
 48 47 0 0 0
SMALL
GASTEIGER

@<TRIPOS>ATOM
      1 O           2.5369    0.4400    0.0000 O.3     1  UNL1       -0.4806
      2 O           3.4030   -1.0600    0.0000 O.2     1  UNL1       -0.2510
      3 C           6.8671   -0.0600    0.0000 C.3     1  UNL1       -0.0530
      4 C           7.7331    0.4400    0.0000 C.3     1  UNL1       -0.0528
      5 C           6.0010    0.4400    0.0000 C.3     1  UNL1       -0.0526
      6 C           8.5991   -0.0600    0.0000 C.3     1  UNL1       -0.0496
      7 C           5.1350   -0.0600    0.0000 C.3     1  UNL1       -0.0430
      8 C           9.4651    0.4400    0.0000 C.3     1  UNL1       -0.0345
      9 C           4.2690    0.4400    0.0000 C.3     1  UNL1        0.0448
     10 C          10.3312   -0.0600    0.0000 C.2     1  UNL1       -0.0840
     11 C           3.4030   -0.0600    0.0000 C.2     1  UNL1        0.3047
     12 C          11.1972    0.4400    0.0000 C.2     1  UNL1       -0.0657
     13 C          12.0632   -0.0600    0.0000 C.2     1  UNL1       -0.0621
     14 C          12.9292    0.4400    0.0000 C.2     1  UNL1       -0.0618
     15 C          13.7953   -0.0600    0.0000 C.2     1  UNL1       -0.0618
     16 C          17.2594   -0.0600    0.0000 C.3     1  UNL1       -0.0373
     17 C          14.6613    0.4400    0.0000 C.2     1  UNL1       -0.0621
     18 C          16.3933    0.4400    0.0000 C.2     1  UNL1       -0.0843
     19 C          15.5273   -0.0600    0.0000 C.2     1  UNL1       -0.0657
     20 C          18.1254    0.4400    0.0000 C.3     1  UNL1       -0.0618
     21 H           6.4685   -0.5349    0.0000 H       1  UNL1        0.0265
     22 H           7.2656   -0.5349    0.0000 H       1  UNL1        0.0265
     23 H           8.1316    0.9149    0.0000 H       1  UNL1        0.0265
     24 H           7.3346    0.9149    0.0000 H       1  UNL1        0.0265
     25 H           6.3996    0.9149    0.0000 H       1  UNL1        0.0265
     26 H           5.6025    0.9149    0.0000 H       1  UNL1        0.0265
     27 H           8.2006   -0.5349    0.0000 H       1  UNL1        0.0268
     28 H           8.9976   -0.5349    0.0000 H       1  UNL1        0.0268
     29 H           4.7365   -0.5349    0.0000 H       1  UNL1        0.0270
     30 H           5.5335   -0.5349    0.0000 H       1  UNL1        0.0270
     31 H           9.8637    0.9149    0.0000 H       1  UNL1        0.0307
     32 H           9.0666    0.9149    0.0000 H       1  UNL1        0.0307
     33 H           4.6675    0.9149    0.0000 H       1  UNL1        0.0377
     34 H           3.8705    0.9149    0.0000 H       1  UNL1        0.0377
     35 H          10.3312   -0.6800    0.0000 H       1  UNL1        0.0572
     36 H          11.1972    1.0600    0.0000 H       1  UNL1        0.0614
     37 H          12.0632   -0.6800    0.0000 H       1  UNL1        0.0617
     38 H           2.0000    0.1300    0.0000 H       1  UNL1        0.2951
     39 H          12.9292    1.0600    0.0000 H       1  UNL1        0.0618
     40 H          13.7953   -0.6800    0.0000 H       1  UNL1        0.0618
     41 H          16.8608   -0.5349    0.0000 H       1  UNL1        0.0305
     42 H          17.6579   -0.5349    0.0000 H       1  UNL1        0.0305
     43 H          14.6613    1.0600    0.0000 H       1  UNL1        0.0617
     44 H          16.3933    1.0600    0.0000 H       1  UNL1        0.0572
     45 H          15.5273   -0.6800    0.0000 H       1  UNL1        0.0614
     46 H          18.4354   -0.0969    0.0000 H       1  UNL1        0.0233
     47 H          18.6623    0.7500    0.0000 H       1  UNL1        0.0233
     48 H          17.8154    0.9769    0.0000 H       1  UNL1        0.0233
@<TRIPOS>BOND
     1     1    11    1
     2     1    38    1
     3     2    11    2
     4     3     4    1
     5     3     5    1
     6     3    21    1
     7     3    22    1
     8     4     6    1
     9     4    23    1
    10     4    24    1
    11     5     7    1
    12     5    25    1
    13     5    26    1
    14     6     8    1
    15     6    27    1
    16     6    28    1
    17     7     9    1
    18     7    29    1
    19     7    30    1
    20     8    10    1
    21     8    31    1
    22     8    32    1
    23     9    11    1
    24     9    33    1
    25     9    34    1
    26    10    12    2
    27    10    35    1
    28    12    13    1
    29    12    36    1
    30    13    14    2
    31    13    37    1
    32    14    15    1
    33    14    39    1
    34    15    17    2
    35    15    40    1
    36    16    18    1
    37    16    20    1
    38    16    41    1
    39    16    42    1
    40    17    19    1
    41    17    43    1
    42    18    19    2
    43    18    44    1
    44    19    45    1
    45    20    46    1
    46    20    47    1
    47    20    48    1
