@<TRIPOS>MOLECULE
IMPHY002381
 30 33 0 0 0
SMALL
GASTEIGER

@<TRIPOS>ATOM
      1 C           3.4598    2.5025    0.0000 C.ar    1  UNL1       -0.0167
      2 C           2.5970    3.0112    0.0000 C.3     1  UNL1        0.0473
      3 C           3.4598    1.5002    0.0000 C.ar    1  UNL1        0.0073
      4 C           4.3247    3.0005    0.0000 C.ar    1  UNL1        0.0360
      5 C           2.5970    4.0114    0.0000 C.ar    1  UNL1       -0.0121
      6 C           1.7299    2.5025    0.0000 C.3     1  UNL1        0.0464
      7 C           2.5970    1.0087    0.0000 C.3     1  UNL1        0.1766
      8 C           4.3247    1.0023    0.0000 C.ar    1  UNL1        0.0380
      9 C           5.1875    2.5025    0.0000 C.ar    1  UNL1        0.1761
     10 C           1.7320    4.5115    0.0000 C.ar    1  UNL1        0.0363
     11 C           3.4641    4.5093    0.0000 C.ar    1  UNL1        0.0363
     12 C           1.7299    1.5002    0.0000 C.3     1  UNL1        0.0708
     13 C           0.8649    3.0005    0.0000 C.3     1  UNL1        0.1829
     14 O           2.5970    0.0086    0.0000 O.3     1  UNL1       -0.2182
     15 C           5.1875    1.5002    0.0000 C.ar    1  UNL1        0.1762
     16 O           6.1405    2.8138    0.0000 O.3     1  UNL1       -0.4346
     17 C           1.7342    5.5116    0.0000 C.ar    1  UNL1        0.1751
     18 C           3.4662    5.5095    0.0000 C.ar    1  UNL1        0.1751
     19 C           0.8671    0.9980    0.0000 C.3     1  UNL1        0.1850
     20 O           0.0000    2.4961    0.0000 O.3     1  UNL1       -0.2204
     21 O           6.1405    1.1912    0.0000 O.3     1  UNL1       -0.4346
     22 C           6.7285    2.0025    0.0000 C.3     1  UNL1        0.4294
     23 C           2.6013    6.0117    0.0000 C.ar    1  UNL1        0.2060
     24 O           0.8692    6.0138    0.0000 O.3     1  UNL1       -0.4683
     25 O           4.3333    6.0095    0.0000 O.3     1  UNL1       -0.4683
     26 O           0.8692    0.0000    0.0000 O.3     1  UNL1       -0.2203
     27 O           2.6013    7.0119    0.0000 O.3     1  UNL1       -0.4654
     28 C           0.0021    5.5138    0.0000 C.3     1  UNL1        0.2526
     29 C           5.1983    5.5073    0.0000 C.3     1  UNL1        0.2526
     30 C           3.4684    7.5119    0.0000 C.3     1  UNL1        0.2528
@<TRIPOS>BOND
     1     1     2    1
     2     1     3   ar
     3     1     4   ar
     4     2     5    1
     5     2     6    1
     6     3     7    1
     7     3     8   ar
     8     4     9   ar
     9     5    10   ar
    10     5    11   ar
    11     6    12    1
    12     6    13    1
    13     7    12    1
    14     7    14    1
    15     8    15   ar
    16     9    15   ar
    17     9    16    1
    18    10    17   ar
    19    11    18   ar
    20    12    19    1
    21    13    20    1
    22    15    21    1
    23    16    22    1
    24    17    23   ar
    25    17    24    1
    26    18    23   ar
    27    18    25    1
    28    19    26    1
    29    21    22    1
    30    23    27    1
    31    24    28    1
    32    25    29    1
    33    27    30    1
