@<TRIPOS>MOLECULE
IMPHY013547
 81 84 0 0 0
SMALL
GASTEIGER

@<TRIPOS>ATOM
      1 O           2.5357   -3.2629    0.0000 O.3     1  UNL1       -0.3915
      2 C           7.9288   -0.2105    0.0000 C.3     1  UNL1       -0.0225
      3 C           7.9288   -1.2105    0.0000 C.3     1  UNL1       -0.0140
      4 C           6.1968   -1.2105    0.0000 C.3     1  UNL1       -0.0139
      5 C           5.2868   -1.7174    0.0000 C.3     1  UNL1       -0.0220
      6 C           8.8750    0.0942    0.0000 C.3     1  UNL1       -0.0325
      7 C           7.0628   -1.7105    0.0000 C.2     1  UNL1       -0.0662
      8 C           5.2787   -2.7590    0.0000 C.3     1  UNL1       -0.0267
      9 C           7.0628    0.2895    0.0000 C.3     1  UNL1       -0.0463
     10 C           6.1968   -0.2105    0.0000 C.3     1  UNL1       -0.0455
     11 C           8.8750   -1.5153    0.0000 C.3     1  UNL1       -0.0457
     12 C           9.4586   -0.7105    0.0000 C.3     1  UNL1       -0.0489
     13 C           4.3599   -1.1533    0.0000 C.3     1  UNL1       -0.0445
     14 C           4.3433   -3.3087    0.0000 C.3     1  UNL1       -0.0142
     15 C           6.1808   -3.2798    0.0000 C.3     1  UNL1       -0.0308
     16 C           9.1857    1.0447    0.0000 C.3     1  UNL1       -0.0402
     17 C           7.9288    0.7895    0.0000 C.3     1  UNL1       -0.0588
     18 C           7.0789   -2.7520    0.0000 C.2     1  UNL1       -0.0839
     19 C           5.2945   -0.7174    0.0000 C.3     1  UNL1       -0.0587
     20 C           3.4120   -1.6812    0.0000 C.3     1  UNL1       -0.0261
     21 C           3.4037   -2.7662    0.0000 C.3     1  UNL1        0.0581
     22 C          10.1642    1.2509    0.0000 C.3     1  UNL1       -0.0465
     23 C           4.3472   -4.3087    0.0000 C.3     1  UNL1       -0.0598
     24 C           8.5179    1.7890    0.0000 C.3     1  UNL1       -0.0621
     25 C          10.4749    2.2014    0.0000 C.3     1  UNL1       -0.0312
     26 C          11.4534    2.4077    0.0000 C.2     1  UNL1       -0.0712
     27 C          11.7640    3.3582    0.0000 C.3     1  UNL1       -0.0170
     28 C          12.1212    1.6634    0.0000 C.2     1  UNL1       -0.0989
     29 C          12.0747    4.3087    0.0000 C.3     1  UNL1       -0.0564
     30 C          12.7146    3.0475    0.0000 C.3     1  UNL1       -0.0564
     31 C          10.8135    3.6688    0.0000 C.3     1  UNL1       -0.0564
     32 H           7.9944   -1.8271    0.0000 H       1  UNL1        0.0351
     33 H           6.7337   -0.9005    0.0000 H       1  UNL1        0.0351
     34 H           9.4875    0.1904    0.0000 H       1  UNL1        0.0309
     35 H           5.2811   -3.3790    0.0000 H       1  UNL1        0.0313
     36 H           7.4613    0.7644    0.0000 H       1  UNL1        0.0271
     37 H           6.6643    0.7644    0.0000 H       1  UNL1        0.0271
     38 H           5.9847    0.3721    0.0000 H       1  UNL1        0.0271
     39 H           5.5862   -0.3182    0.0000 H       1  UNL1        0.0271
     40 H           8.6240   -2.0822    0.0000 H       1  UNL1        0.0271
     41 H           9.4124   -1.8245    0.0000 H       1  UNL1        0.0271
     42 H           9.9195   -1.1253    0.0000 H       1  UNL1        0.0268
     43 H           9.9195   -0.2958    0.0000 H       1  UNL1        0.0268
     44 H           4.7681   -0.6867    0.0000 H       1  UNL1        0.0272
     45 H           3.9700   -0.6713    0.0000 H       1  UNL1        0.0272
     46 H           3.8070   -3.6198    0.0000 H       1  UNL1        0.0326
     47 H           5.7835   -3.7558    0.0000 H       1  UNL1        0.0310
     48 H           6.5818   -3.7527    0.0000 H       1  UNL1        0.0310
     49 H           9.3783    1.6340    0.0000 H       1  UNL1        0.0301
     50 H           8.5488    0.7895    0.0000 H       1  UNL1        0.0235
     51 H           7.9288    1.4095    0.0000 H       1  UNL1        0.0235
     52 H           7.3088    0.7895    0.0000 H       1  UNL1        0.0235
     53 H           7.6193   -3.0558    0.0000 H       1  UNL1        0.0572
     54 H           5.9145   -0.7222    0.0000 H       1  UNL1        0.0235
     55 H           5.2993   -0.0974    0.0000 H       1  UNL1        0.0235
     56 H           4.6745   -0.7126    0.0000 H       1  UNL1        0.0235
     57 H           3.2075   -1.0960    0.0000 H       1  UNL1        0.0290
     58 H           2.8004   -1.7826    0.0000 H       1  UNL1        0.0290
     59 H           3.4025   -3.3862    0.0000 H       1  UNL1        0.0596
     60 H          10.1848    0.6313    0.0000 H       1  UNL1        0.0271
     61 H          10.7780    1.1636    0.0000 H       1  UNL1        0.0271
     62 H           3.7272   -4.3111    0.0000 H       1  UNL1        0.0233
     63 H           4.3496   -4.9287    0.0000 H       1  UNL1        0.0233
     64 H           4.9672   -4.3063    0.0000 H       1  UNL1        0.0233
     65 H           8.9793    2.2031    0.0000 H       1  UNL1        0.0233
     66 H           8.1038    2.2505    0.0000 H       1  UNL1        0.0233
     67 H           8.0564    1.3749    0.0000 H       1  UNL1        0.0233
     68 H          10.4543    2.8211    0.0000 H       1  UNL1        0.0310
     69 H           9.8611    2.2888    0.0000 H       1  UNL1        0.0310
     70 H           2.0000   -2.9508    0.0000 H       1  UNL1        0.2098
     71 H          11.9286    1.0740    0.0000 H       1  UNL1        0.0535
     72 H          12.7279    1.7912    0.0000 H       1  UNL1        0.0535
     73 H          12.6640    4.1161    0.0000 H       1  UNL1        0.0238
     74 H          12.2673    4.8980    0.0000 H       1  UNL1        0.0238
     75 H          11.4854    4.5013    0.0000 H       1  UNL1        0.0238
     76 H          12.5219    2.4582    0.0000 H       1  UNL1        0.0238
     77 H          13.3039    2.8549    0.0000 H       1  UNL1        0.0238
     78 H          12.9072    3.6368    0.0000 H       1  UNL1        0.0238
     79 H          11.0061    4.2582    0.0000 H       1  UNL1        0.0238
     80 H          10.2242    3.8615    0.0000 H       1  UNL1        0.0238
     81 H          10.6209    3.0795    0.0000 H       1  UNL1        0.0238
@<TRIPOS>BOND
     1     1    21    1
     2     1    70    1
     3     2     3    1
     4     2     6    1
     5     2     9    1
     6     2    17    1
     7     3     7    1
     8     3    11    1
     9     3    32    1
    10     4     5    1
    11     4     7    1
    12     4    10    1
    13     4    33    1
    14     5     8    1
    15     5    13    1
    16     5    19    1
    17     6    12    1
    18     6    16    1
    19     6    34    1
    20     7    18    2
    21     8    14    1
    22     8    15    1
    23     8    35    1
    24     9    10    1
    25     9    36    1
    26     9    37    1
    27    10    38    1
    28    10    39    1
    29    11    12    1
    30    11    40    1
    31    11    41    1
    32    12    42    1
    33    12    43    1
    34    13    20    1
    35    13    44    1
    36    13    45    1
    37    14    21    1
    38    14    23    1
    39    14    46    1
    40    15    18    1
    41    15    47    1
    42    15    48    1
    43    16    22    1
    44    16    24    1
    45    16    49    1
    46    17    50    1
    47    17    51    1
    48    17    52    1
    49    18    53    1
    50    19    54    1
    51    19    55    1
    52    19    56    1
    53    20    21    1
    54    20    57    1
    55    20    58    1
    56    21    59    1
    57    22    25    1
    58    22    60    1
    59    22    61    1
    60    23    62    1
    61    23    63    1
    62    23    64    1
    63    24    65    1
    64    24    66    1
    65    24    67    1
    66    25    26    1
    67    25    68    1
    68    25    69    1
    69    26    27    1
    70    26    28    2
    71    27    29    1
    72    27    30    1
    73    27    31    1
    74    28    71    1
    75    28    72    1
    76    29    73    1
    77    29    74    1
    78    29    75    1
    79    30    76    1
    80    30    77    1
    81    30    78    1
    82    31    79    1
    83    31    80    1
    84    31    81    1
