@<TRIPOS>MOLECULE
IMPHY003356
 38 39 0 0 0
SMALL
GASTEIGER

@<TRIPOS>ATOM
      1 O           5.5301   -1.2379    0.0000 O.2     1  UNL1       -0.4218
      2 O           7.2622   -1.2379    0.0000 O.2     1  UNL1       -0.2449
      3 O           2.0000    0.7862    0.0000 O.3     1  UNL1       -0.4914
      4 O           2.0000   -1.2621    0.0000 O.3     1  UNL1       -0.4913
      5 C           7.2622    0.7621    0.0000 C.3     1  UNL1        0.0146
      6 C           6.3961    0.2621    0.0000 C.ar    1  UNL1        0.0470
      7 C           6.7622    1.6281    0.0000 C.3     1  UNL1       -0.0521
      8 C           7.7622   -0.1040    0.0000 C.3     1  UNL1       -0.0521
      9 C           5.5301    0.7621    0.0000 C.ar    1  UNL1       -0.0402
     10 C           4.6641    0.2621    0.0000 C.ar    1  UNL1        0.0216
     11 C           8.1282    1.2621    0.0000 C.2     1  UNL1       -0.0809
     12 C           6.3961   -0.7379    0.0000 C.ar    1  UNL1        0.3413
     13 C           4.6641   -0.7379    0.0000 C.ar    1  UNL1        0.1428
     14 C           3.7702    0.7967    0.0000 C.ar    1  UNL1       -0.0056
     15 C           3.7702   -1.2726    0.0000 C.ar    1  UNL1        0.0267
     16 C           2.8641    0.2829    0.0000 C.ar    1  UNL1        0.1623
     17 C           2.8641   -0.7587    0.0000 C.ar    1  UNL1        0.1650
     18 C           8.1282    2.2621    0.0000 C.2     1  UNL1       -0.1018
     19 C           2.0038    1.7862    0.0000 C.3     1  UNL1        0.0790
     20 C           2.0038   -2.2621    0.0000 C.3     1  UNL1        0.0790
     21 H           7.2252   -0.4140    0.0000 H       1  UNL1        0.0241
     22 H           8.0722   -0.6409    0.0000 H       1  UNL1        0.0241
     23 H           8.2991    0.2060    0.0000 H       1  UNL1        0.0241
     24 H           7.2991    1.9381    0.0000 H       1  UNL1        0.0241
     25 H           6.4522    2.1650    0.0000 H       1  UNL1        0.0241
     26 H           6.2252    1.3181    0.0000 H       1  UNL1        0.0241
     27 H           5.5301    1.3821    0.0000 H       1  UNL1        0.0630
     28 H           8.6651    0.9521    0.0000 H       1  UNL1        0.0575
     29 H           3.7773    1.4167    0.0000 H       1  UNL1        0.0662
     30 H           3.7773   -1.8926    0.0000 H       1  UNL1        0.0692
     31 H           8.6651    2.5721    0.0000 H       1  UNL1        0.0532
     32 H           7.5913    2.5721    0.0000 H       1  UNL1        0.0532
     33 H           2.6238    1.7838    0.0000 H       1  UNL1        0.0660
     34 H           2.0062    2.4062    0.0000 H       1  UNL1        0.0660
     35 H           1.3839    1.7886    0.0000 H       1  UNL1        0.0660
     36 H           1.3839   -2.2645    0.0000 H       1  UNL1        0.0660
     37 H           2.0062   -2.8821    0.0000 H       1  UNL1        0.0660
     38 H           2.6238   -2.2597    0.0000 H       1  UNL1        0.0660
@<TRIPOS>BOND
     1     1    12   ar
     2     1    13   ar
     3     2    12    2
     4     3    16    1
     5     3    19    1
     6     4    17    1
     7     4    20    1
     8     5     6    1
     9     5     7    1
    10     5     8    1
    11     5    11    1
    12     6     9   ar
    13     6    12   ar
    14     7    24    1
    15     7    25    1
    16     7    26    1
    17     8    21    1
    18     8    22    1
    19     8    23    1
    20     9    10   ar
    21     9    27    1
    22    10    13   ar
    23    10    14   ar
    24    11    18    2
    25    11    28    1
    26    13    15   ar
    27    14    16   ar
    28    14    29    1
    29    15    17   ar
    30    15    30    1
    31    16    17   ar
    32    18    31    1
    33    18    32    1
    34    19    33    1
    35    19    34    1
    36    19    35    1
    37    20    36    1
    38    20    37    1
    39    20    38    1
