@<TRIPOS>MOLECULE
IMPHY009888
 80 86 0 0 0
SMALL
GASTEIGER

@<TRIPOS>ATOM
      1 O           2.9606    2.1676    0.0000 O.3     1  UNL1       -0.2983
      2 O           2.3641    3.1790    0.0000 O.3     1  UNL1       -0.3481
      3 O           5.1130    5.5122    0.0000 O.2     1  UNL1       -0.2735
      4 O           5.4763    1.6007    0.0000 O.2     1  UNL1       -0.2704
      5 O           3.3456   -0.8615    0.0000 O.2     1  UNL1       -0.2750
      6 N           4.3540    2.9776    0.0000 N.am    1  UNL1       -0.2332
      7 N           3.5334    4.8016    0.0000 N.am    1  UNL1       -0.2900
      8 N           4.2058    0.6418    0.0000 N.am    1  UNL1       -0.2793
      9 N           6.8777   -0.8618    0.0000 N.3     1  UNL1       -0.2971
     10 N           7.8657   -5.0519    0.0000 N.ar    1  UNL1       -0.3604
     11 C           2.9488    3.9903    0.0000 C.3     1  UNL1        0.0987
     12 C           3.3590    3.0783    0.0000 C.3     1  UNL1        0.2691
     13 C           4.9386    3.7889    0.0000 C.3     1  UNL1        0.1096
     14 C           2.0030    4.2963    0.0000 C.3     1  UNL1       -0.0261
     15 C           3.7024    1.5059    0.0000 C.3     1  UNL1        0.2201
     16 C           2.9440    5.6020    0.0000 C.3     1  UNL1        0.0154
     17 C           2.0000    5.2904    0.0000 C.3     1  UNL1       -0.0352
     18 C           4.5284    4.7009    0.0000 C.2     1  UNL1        0.2370
     19 C           4.5619    2.0055    0.0000 C.2     1  UNL1        0.2712
     20 C           5.9335    3.6882    0.0000 C.3     1  UNL1       -0.0193
     21 C           3.0362    0.7603    0.0000 C.3     1  UNL1        0.0085
     22 C           6.5182    4.4995    0.0000 C.3     1  UNL1       -0.0605
     23 C           6.3438    2.7762    0.0000 C.3     1  UNL1       -0.0605
     24 C           2.0573    0.9644    0.0000 C.3     1  UNL1       -0.0580
     25 C           3.3489   -0.1897    0.0000 C.3     1  UNL1       -0.0580
     26 C           5.0776   -0.8548    0.0000 C.3     1  UNL1        0.0670
     27 C           4.2096   -0.3582    0.0000 C.2     1  UNL1        0.2235
     28 C           6.8616   -1.9033    0.0000 C.3     1  UNL1        0.0397
     29 C           5.9797   -0.3340    0.0000 C.3     1  UNL1        0.0138
     30 C           5.9956   -2.4033    0.0000 C.2     1  UNL1       -0.0254
     31 C           5.0856   -1.8964    0.0000 C.2     1  UNL1       -0.0658
     32 C           7.7277   -2.4033    0.0000 C.3     1  UNL1       -0.0059
     33 C           5.9956   -3.4033    0.0000 C.ar    1  UNL1       -0.0112
     34 C           7.7277   -3.4033    0.0000 C.ar    1  UNL1       -0.0200
     35 C           6.8616   -3.9033    0.0000 C.ar    1  UNL1        0.0103
     36 C           7.7494   -0.3718    0.0000 C.3     1  UNL1       -0.0121
     37 C           6.8777   -4.9448    0.0000 C.ar    1  UNL1        0.0473
     38 C           8.3456   -4.1816    0.0000 C.ar    1  UNL1        0.0060
     39 C           5.0856   -3.9101    0.0000 C.ar    1  UNL1       -0.0536
     40 C           5.9797   -5.4725    0.0000 C.ar    1  UNL1       -0.0378
     41 C           5.0776   -4.9517    0.0000 C.ar    1  UNL1       -0.0592
     42 H           3.7945    3.9047    0.0000 H       1  UNL1        0.0572
     43 H           5.3011    4.2919    0.0000 H       1  UNL1        0.0601
     44 H           1.3862    4.3596    0.0000 H       1  UNL1        0.0286
     45 H           1.8752    3.6896    0.0000 H       1  UNL1        0.0286
     46 H           3.4791    5.9152    0.0000 H       1  UNL1        0.0465
     47 H           2.6888    6.1671    0.0000 H       1  UNL1        0.0465
     48 H           1.8686    5.8963    0.0000 H       1  UNL1        0.0281
     49 H           1.3836    5.2234    0.0000 H       1  UNL1        0.0281
     50 H           6.5504    3.6258    0.0000 H       1  UNL1        0.0318
     51 H           2.8423    1.3492    0.0000 H       1  UNL1        0.0345
     52 H           4.7415    0.9539    0.0000 H       1  UNL1        0.1519
     53 H           2.0016    2.6760    0.0000 H       1  UNL1        0.2145
     54 H           7.0212    4.1370    0.0000 H       1  UNL1        0.0233
     55 H           6.8807    5.0025    0.0000 H       1  UNL1        0.0233
     56 H           6.0152    4.8620    0.0000 H       1  UNL1        0.0233
     57 H           5.7784    2.5219    0.0000 H       1  UNL1        0.0233
     58 H           6.5982    2.2108    0.0000 H       1  UNL1        0.0233
     59 H           6.9092    3.0306    0.0000 H       1  UNL1        0.0233
     60 H           2.1838    1.5713    0.0000 H       1  UNL1        0.0234
     61 H           1.4503    1.0910    0.0000 H       1  UNL1        0.0234
     62 H           1.9307    0.3575    0.0000 H       1  UNL1        0.0234
     63 H           2.7600   -0.3836    0.0000 H       1  UNL1        0.0234
     64 H           3.5428   -0.7786    0.0000 H       1  UNL1        0.0234
     65 H           3.9378    0.0042    0.0000 H       1  UNL1        0.0234
     66 H           4.5424   -1.1679    0.0000 H       1  UNL1        0.0450
     67 H           7.6010   -1.4840    0.0000 H       1  UNL1        0.0515
     68 H           6.3806    0.1389    0.0000 H       1  UNL1        0.0437
     69 H           5.5824    0.1420    0.0000 H       1  UNL1        0.0437
     70 H           4.5523   -2.2126    0.0000 H       1  UNL1        0.0583
     71 H           8.3382   -2.5109    0.0000 H       1  UNL1        0.0332
     72 H           7.9397   -1.8207    0.0000 H       1  UNL1        0.0332
     73 H           8.0532   -0.9123    0.0000 H       1  UNL1        0.0391
     74 H           8.2899   -0.0680    0.0000 H       1  UNL1        0.0391
     75 H           7.4457    0.1687    0.0000 H       1  UNL1        0.0391
     76 H           8.9634   -4.1299    0.0000 H       1  UNL1        0.0810
     77 H           4.5523   -3.5939    0.0000 H       1  UNL1        0.0624
     78 H           8.1517   -5.6020    0.0000 H       1  UNL1        0.1653
     79 H           5.9821   -6.0925    0.0000 H       1  UNL1        0.0638
     80 H           4.5395   -5.2596    0.0000 H       1  UNL1        0.0618
@<TRIPOS>BOND
     1     1    12    1
     2     1    15    1
     3    12     2    1
     4     2    53    1
     5     3    18    2
     6     4    19    2
     7     5    27    2
     8     6    12    1
     9     6    13    1
    10     6    19   am
    11     7    11    1
    12     7    16    1
    13     7    18   am
    14    15     8    1
    15     8    27   am
    16     8    52    1
    17     9    28    1
    18     9    29    1
    19     9    36    1
    20    10    37   ar
    21    10    38   ar
    22    10    78    1
    23    11    12    1
    24    11    14    1
    25    11    42    1
    26    13    18    1
    27    13    20    1
    28    13    43    1
    29    14    17    1
    30    14    44    1
    31    14    45    1
    32    15    19    1
    33    15    21    1
    34    16    17    1
    35    16    46    1
    36    16    47    1
    37    17    48    1
    38    17    49    1
    39    20    22    1
    40    20    23    1
    41    20    50    1
    42    21    24    1
    43    21    25    1
    44    21    51    1
    45    22    54    1
    46    22    55    1
    47    22    56    1
    48    23    57    1
    49    23    58    1
    50    23    59    1
    51    24    60    1
    52    24    61    1
    53    24    62    1
    54    25    63    1
    55    25    64    1
    56    25    65    1
    57    26    27    1
    58    26    29    1
    59    26    31    1
    60    26    66    1
    61    28    30    1
    62    28    32    1
    63    28    67    1
    64    29    68    1
    65    29    69    1
    66    30    31    2
    67    30    33    1
    68    31    70    1
    69    32    34    1
    70    32    71    1
    71    32    72    1
    72    33    35   ar
    73    33    39   ar
    74    34    35   ar
    75    34    38   ar
    76    35    37   ar
    77    36    73    1
    78    36    74    1
    79    36    75    1
    80    37    40   ar
    81    38    76    1
    82    39    41   ar
    83    39    77    1
    84    40    41   ar
    85    40    79    1
    86    41    80    1
